*SPEF "1481-1998"
*DESIGN "msrv32_alu"
*DATE "Thu Apr 24 10:27:56 2025"
*VENDOR "Synopsys, Inc."
*PROGRAM "icc2 /home/cad/eda/SYNOPSYS/IC2_Compiler/icc2/T-2022.03-SP4/linux64/nwtn/bin/icc2_exec"
*VERSION "T-2022.03-SP4 Aug 31, 2022"
*DESIGN_FLOW "ICC2 SPEF DR"
*DIVIDER /
*DELIMITER :
*BUS_DELIMITER [ ]
*T_UNIT 1 NS
*C_UNIT 1 FF
*R_UNIT 1 OHM
*L_UNIT 1 HENRY

// XY_UNIT 1 UM
// PARASITIC_TECH riscv_MACRO_no_clk_1 at 125.000 degree

*NAME_MAP
*1 op_1_in[31]
*2 op_1_in[30]
*3 op_1_in[29]
*4 op_1_in[28]
*5 op_1_in[27]
*6 op_1_in[26]
*7 op_1_in[25]
*8 op_1_in[24]
*9 op_1_in[23]
*10 op_1_in[22]
*11 op_1_in[21]
*12 op_1_in[20]
*13 op_1_in[19]
*14 op_1_in[18]
*15 op_1_in[17]
*16 op_1_in[16]
*17 op_1_in[15]
*18 op_1_in[14]
*19 op_1_in[13]
*20 op_1_in[12]
*21 op_1_in[11]
*22 op_1_in[10]
*23 op_1_in[9]
*24 op_1_in[8]
*25 op_1_in[7]
*26 op_1_in[6]
*27 op_1_in[5]
*28 op_1_in[4]
*29 op_1_in[3]
*30 op_1_in[2]
*31 op_1_in[1]
*32 op_1_in[0]
*33 op_2_in[31]
*34 op_2_in[30]
*35 op_2_in[29]
*36 op_2_in[28]
*37 op_2_in[27]
*38 op_2_in[26]
*39 op_2_in[25]
*40 op_2_in[24]
*41 op_2_in[23]
*42 op_2_in[22]
*43 op_2_in[21]
*44 op_2_in[20]
*45 op_2_in[19]
*46 op_2_in[18]
*47 op_2_in[17]
*48 op_2_in[16]
*49 op_2_in[15]
*50 op_2_in[14]
*51 op_2_in[13]
*52 op_2_in[12]
*53 op_2_in[11]
*54 op_2_in[10]
*55 op_2_in[9]
*56 op_2_in[8]
*57 op_2_in[7]
*58 op_2_in[6]
*59 op_2_in[5]
*60 op_2_in[4]
*61 op_2_in[3]
*62 op_2_in[2]
*63 op_2_in[1]
*64 op_2_in[0]
*65 opcode_in[3]
*66 opcode_in[2]
*67 opcode_in[1]
*68 opcode_in[0]
*69 result_out[31]
*70 result_out[30]
*71 result_out[29]
*72 result_out[28]
*73 result_out[27]
*74 result_out[26]
*75 result_out[25]
*76 result_out[24]
*77 result_out[23]
*78 result_out[22]
*79 result_out[21]
*80 result_out[20]
*81 result_out[19]
*82 result_out[18]
*83 result_out[17]
*84 result_out[16]
*85 result_out[15]
*86 result_out[14]
*87 result_out[13]
*88 result_out[12]
*89 result_out[11]
*90 result_out[10]
*91 result_out[9]
*92 result_out[8]
*93 result_out[7]
*94 result_out[6]
*95 result_out[5]
*96 result_out[4]
*97 result_out[3]
*98 result_out[2]
*99 result_out[1]
*100 result_out[0]
*101 VDD
*102 VSS
*103 U447
*104 U450
*105 U451
*106 U453
*107 U454
*108 U455
*109 U456
*110 U458
*111 U459
*112 U460
*113 U462
*114 U463
*115 U464
*116 U465
*117 U466
*118 U469
*119 U471
*120 U474
*121 U476
*122 U478
*123 U481
*124 HFSBUF_2593_17
*125 HFSINV_2885_18
*126 HFSINV_76_0
*127 U487
*128 U488
*129 U489
*130 U490
*131 U491
*132 U492
*133 U493
*134 U494
*135 U498
*136 U499
*137 U500
*138 U501
*139 U502
*140 U503
*141 U504
*142 U505
*143 U506
*144 U507
*145 U508
*146 U509
*147 U511
*148 U512
*149 U513
*150 U514
*151 U515
*152 U516
*153 U517
*154 U518
*155 U519
*156 U520
*157 U521
*158 U522
*159 U523
*160 U524
*161 U525
*162 U526
*163 U527
*164 U528
*165 U529
*166 U530
*167 U531
*168 U532
*169 U533
*170 U534
*171 U535
*172 U536
*173 U537
*174 U538
*175 U539
*176 U540
*177 U541
*178 U542
*179 U543
*180 U544
*181 U545
*182 U546
*183 U547
*184 U548
*185 U549
*186 U550
*187 U551
*188 U552
*189 U553
*190 U554
*191 U555
*192 U556
*193 U557
*194 U558
*195 U559
*196 U560
*197 U561
*198 U562
*199 U563
*200 U564
*201 U565
*202 U566
*203 U567
*204 U568
*205 U569
*206 U570
*207 U571
*208 U572
*209 U573
*210 U575
*211 U579
*212 U580
*213 U583
*214 U585
*215 U590
*216 U591
*217 U594
*218 U595
*219 U597
*220 U602
*221 U605
*222 U606
*223 U607
*224 U609
*225 U610
*226 U611
*227 U612
*228 U613
*229 U614
*230 U615
*231 U616
*232 U617
*233 U618
*234 U619
*235 U620
*236 U621
*237 U622
*238 U623
*239 U624
*240 U625
*241 U626
*242 U627
*243 U628
*244 U629
*245 U630
*246 U631
*247 U632
*248 U633
*249 U634
*250 U635
*251 U636
*252 U637
*253 U638
*254 U639
*255 U641
*256 U642
*257 U645
*258 U646
*259 U649
*260 U650
*261 U651
*262 U652
*263 U653
*264 U654
*265 U655
*266 U656
*267 U657
*268 U658
*269 U659
*270 U660
*271 U662
*272 U663
*273 U664
*274 U665
*275 U666
*276 U667
*277 U668
*278 U669
*279 U670
*280 U671
*281 U672
*282 U673
*283 U674
*284 U675
*285 U676
*286 U679
*287 U680
*288 U683
*289 U685
*290 U686
*291 U687
*292 U688
*293 U689
*294 U690
*295 U691
*296 U692
*297 U693
*298 U694
*299 U695
*300 U697
*301 U698
*302 U699
*303 U700
*304 U701
*305 U702
*306 U703
*307 U704
*308 U705
*309 U706
*310 U707
*311 U708
*312 U709
*313 U710
*314 U713
*315 U714
*316 U717
*317 U718
*318 U719
*319 U720
*320 U721
*321 U722
*322 U723
*323 U724
*324 U725
*325 U726
*326 U727
*327 U728
*328 U729
*329 U730
*330 U731
*331 U732
*332 U733
*333 U734
*334 U735
*335 U736
*336 U737
*337 U738
*338 U739
*339 U740
*340 U741
*341 U742
*342 U743
*343 U744
*344 U745
*345 U746
*346 U748
*347 U749
*348 U750
*349 U751
*350 U752
*351 U753
*352 U756
*353 U757
*354 U758
*355 U759
*356 U760
*357 U761
*358 U762
*359 U763
*360 U764
*361 U765
*362 U766
*363 U767
*364 U768
*365 U769
*366 U770
*367 U771
*368 U772
*369 U773
*370 U774
*371 U775
*372 U776
*373 U777
*374 U778
*375 U779
*376 U780
*377 U781
*378 U782
*379 U783
*380 U784
*381 U785
*382 U786
*383 U787
*384 U788
*385 U789
*386 U790
*387 U791
*388 U792
*389 U793
*390 U794
*391 U795
*392 U796
*393 U797
*394 U798
*395 U799
*396 U800
*397 U801
*398 U802
*399 U803
*400 U804
*401 U805
*402 U806
*403 U807
*404 U808
*405 U809
*406 U810
*407 U811
*408 U812
*409 U813
*410 U814
*411 U815
*412 U816
*413 U817
*414 U818
*415 U819
*416 U820
*417 U821
*418 U822
*419 U823
*420 U824
*421 U825
*422 U826
*423 U827
*424 U828
*425 U829
*426 U830
*427 U831
*428 U832
*429 U833
*430 U834
*431 U835
*432 U836
*433 U837
*434 U838
*435 U839
*436 U840
*437 U841
*438 U842
*439 U843
*440 U846
*441 U847
*442 U848
*443 U849
*444 U850
*445 U851
*446 U852
*447 U853
*448 U854
*449 U855
*450 U856
*451 U857
*452 U858
*453 U859
*454 U860
*455 U861
*456 U862
*457 U863
*458 U864
*459 U865
*460 U866
*461 U867
*462 U868
*463 U869
*464 U870
*465 U871
*466 U872
*467 U873
*468 U874
*469 U875
*470 U876
*471 U877
*472 U878
*473 U879
*474 U880
*475 U881
*476 U882
*477 U883
*478 U884
*479 U885
*480 U886
*481 U887
*482 U888
*483 U889
*484 U890
*485 U891
*486 U892
*487 U893
*488 U894
*489 U895
*490 U896
*491 U897
*492 U898
*493 U899
*494 U900
*495 U901
*496 U902
*497 U903
*498 U904
*499 U905
*500 U906
*501 U907
*502 U908
*503 U909
*504 U910
*505 U911
*506 U912
*507 U913
*508 U914
*509 U915
*510 U916
*511 U917
*512 U918
*513 U919
*514 U920
*515 U921
*516 U922
*517 U923
*518 U924
*519 U925
*520 U926
*521 U927
*522 U928
*523 U929
*524 U930
*525 U931
*526 U932
*527 U933
*528 U934
*529 U935
*530 U936
*531 U937
*532 U938
*533 U939
*534 U940
*535 U941
*536 U942
*537 U943
*538 U944
*539 U945
*540 U946
*541 U947
*542 U948
*543 U949
*544 U950
*545 U951
*546 U952
*547 U953
*548 U954
*549 U955
*550 U956
*551 U957
*552 U958
*553 U959
*554 U960
*555 U961
*556 U962
*557 U963
*558 U964
*559 U965
*560 U966
*561 U967
*562 U968
*563 U969
*564 U970
*565 U971
*566 U972
*567 U973
*568 U974
*569 U975
*570 U976
*571 U977
*572 U978
*573 U979
*574 U980
*575 U981
*576 U982
*577 U983
*578 U984
*579 U985
*580 U986
*581 U987
*582 U989
*583 U990
*584 U991
*585 U992
*586 U993
*587 U994
*588 U995
*589 U996
*590 U997
*591 U998
*592 U999
*593 U1000
*594 U1001
*595 U1002
*596 U1003
*597 U1004
*598 U1005
*599 U1006
*600 U1007
*601 U1008
*602 U1009
*603 U1010
*604 U1011
*605 U1012
*606 U1013
*607 U1014
*608 U1015
*609 U1016
*610 U1017
*611 U1018
*612 U1019
*613 U1021
*614 U1022
*615 U1023
*616 U1024
*617 U1025
*618 U1026
*619 U1027
*620 U1028
*621 U1029
*622 U1030
*623 U1031
*624 U1032
*625 U1033
*626 U1034
*627 U1035
*628 U1036
*629 U1037
*630 U1038
*631 U1039
*632 U1040
*633 U1041
*634 U1042
*635 U1043
*636 U1044
*637 U1045
*638 U1046
*639 U1047
*640 U1048
*641 U1049
*642 U1050
*643 U1051
*644 U1052
*645 U1053
*646 U1054
*647 U1055
*648 U1056
*649 U1057
*650 U1058
*651 U1059
*652 U1060
*653 U1061
*654 U1062
*655 U1063
*656 U1064
*657 U1065
*658 U1066
*659 U1067
*660 U1068
*661 U1069
*662 U1070
*663 U1071
*664 U1072
*665 U1073
*666 U1074
*667 U1075
*668 U1076
*669 U1077
*670 U1078
*671 U1079
*672 U1080
*673 U1081
*674 U1082
*675 U1083
*676 U1084
*677 U1085
*678 U1086
*679 U1087
*680 U1088
*681 U1089
*682 U1090
*683 U1091
*684 U1092
*685 U1093
*686 U1094
*687 U1095
*688 U1096
*689 U1097
*690 U1098
*691 U1099
*692 U1100
*693 U1101
*694 U1102
*695 U1103
*696 U1104
*697 U1105
*698 U1106
*699 U1107
*700 U1108
*701 U1109
*702 U1110
*703 U1111
*704 U1112
*705 U1113
*706 U1114
*707 U1115
*708 U1116
*709 U1117
*710 U1118
*711 U1119
*712 U1120
*713 U1121
*714 U1122
*715 U1123
*716 U1124
*717 U1125
*718 U1126
*719 U1127
*720 U1128
*721 U1129
*722 U1130
*723 U1131
*724 U1132
*725 U1133
*726 U1134
*727 U1135
*728 U1136
*729 U1137
*730 U1138
*731 U1139
*732 U1140
*733 U1141
*734 U1142
*735 U1143
*736 U1144
*737 U1145
*738 U1146
*739 U1147
*740 U1148
*741 U1149
*742 U1150
*743 U1151
*744 U1152
*745 U1153
*746 U1154
*747 U1155
*748 U1156
*749 U1157
*750 U1158
*751 U1159
*752 U1160
*753 U1161
*754 U1162
*755 U1163
*756 U1164
*757 U1165
*758 U1166
*759 U1167
*760 U1168
*761 U1169
*762 U1170
*763 U1171
*764 U1172
*765 U1173
*766 U1174
*767 U1175
*768 U1176
*769 U1177
*770 U1178
*771 U1179
*772 U1180
*773 U1182
*774 U1183
*775 U1184
*776 U1185
*777 U1186
*778 U1187
*779 U1188
*780 U1189
*781 U1190
*782 U1191
*783 U1192
*784 U1193
*785 U1194
*786 U1195
*787 U1196
*788 U1197
*789 U1198
*790 U1199
*791 U1200
*792 U1201
*793 U1202
*794 U1203
*795 U1204
*796 U1205
*797 U1206
*798 U1207
*799 U1208
*800 U1209
*801 U1210
*802 U1211
*803 U1212
*804 U1213
*805 U1214
*806 U1215
*807 U1216
*808 U1217
*809 U1218
*810 U1219
*811 U1220
*812 U1221
*813 U1222
*814 U1223
*815 U1224
*816 U1225
*817 U1226
*818 U1227
*819 U1228
*820 U1229
*821 U1230
*822 U1231
*823 U1232
*824 U1233
*825 U1234
*826 U1235
*827 U1236
*828 U1237
*829 U1238
*830 U1239
*831 U1240
*832 U1241
*833 U1242
*834 U1243
*835 U1244
*836 U1245
*837 U1246
*838 U1247
*839 U1248
*840 U1249
*841 U1251
*842 U1252
*843 U1253
*844 U1254
*845 U1255
*846 U1256
*847 U1257
*848 U1258
*849 U1259
*850 U1260
*851 U1261
*852 U1262
*853 U1263
*854 U1264
*855 U1265
*856 U1267
*857 U1268
*858 U1269
*859 U1270
*860 U1271
*861 U1272
*862 U1273
*863 U1274
*864 U1275
*865 U1276
*866 U1277
*867 U1278
*868 U1279
*869 U1280
*870 U1281
*871 U1282
*872 U1283
*873 U1284
*874 U1285
*875 U1286
*876 U1287
*877 U1288
*878 U1289
*879 U1290
*880 U1291
*881 U1292
*882 U1293
*883 U1294
*884 U1295
*885 U1296
*886 U1297
*887 U1298
*888 U1299
*889 U1300
*890 U1301
*891 U1302
*892 U1303
*893 U1304
*894 U1305
*895 U1306
*896 U1307
*897 U1308
*898 U1309
*899 U1310
*900 U1311
*901 U1312
*902 U1313
*903 U1314
*904 U1315
*905 U1316
*906 U1317
*907 U1318
*908 U1319
*909 U1320
*910 U1321
*911 U1322
*912 U1323
*913 U1324
*914 U1325
*915 U1326
*916 U1327
*917 U1328
*918 U1329
*919 U1330
*920 U1331
*921 U1332
*922 U1333
*923 U1334
*924 U1335
*925 U1336
*926 U1337
*927 U1338
*928 U1339
*929 U1340
*930 U1343
*931 U1344
*932 U1345
*933 U1346
*934 U1347
*935 U1348
*936 U1349
*937 U1350
*938 U1351
*939 U1352
*940 U1353
*941 U1354
*942 U1355
*943 U1356
*944 U1359
*945 U1360
*946 U1361
*947 U1362
*948 U1363
*949 U1181
*950 U684
*951 U486
*952 U596
*953 U598
*954 U470
*955 U480
*956 U496
*957 U479
*958 U581
*959 U603
*960 U661
*961 U696
*962 U587
*963 U586
*964 U437
*965 U440
*966 U441
*967 HFSINV_3189_26
*968 HFSBUF_3033_27
*969 HFSBUF_3540_28
*970 HFSINV_3626_29
*971 HFSBUF_109_30
*972 HFSBUF_2845_19
*973 HFSBUF_2736_20
*974 HFSINV_2809_21
*975 HFSBUF_3625_24
*976 HFSINV_4081_25
*977 HFSBUF_3731_22
*978 HFSINV_4071_23
*979 U1366
*980 U1367
*981 U1368
*982 U1369
*983 U1370
*984 U438
*985 U439
*986 U1020
*987 U442
*988 U444
*989 U446
*990 U449
*991 U457
*992 U467
*993 U472
*994 U473
*995 U477
*996 U485
*997 U497
*998 HFSINV_600_1
*999 U483
*1000 n403
*1001 n404
*1002 n405
*1003 n406
*1004 n407
*1005 n408
*1006 n409
*1007 n410
*1008 n411
*1009 n412
*1010 n413
*1011 n414
*1012 n415
*1013 n416
*1014 n417
*1015 n418
*1016 n419
*1017 n420
*1018 n421
*1019 n422
*1020 n423
*1021 n424
*1022 n425
*1023 n426
*1024 n427
*1025 n429
*1026 n430
*1027 n431
*1028 n432
*1029 n433
*1030 n434
*1031 n435
*1032 n436
*1033 n437
*1034 n438
*1035 n439
*1036 n440
*1037 n441
*1038 n443
*1039 n446
*1040 n447
*1041 n448
*1042 n449
*1043 n452
*1044 n453
*1045 n454
*1046 n455
*1047 n456
*1048 n457
*1049 n459
*1050 n460
*1051 n461
*1052 n462
*1053 n463
*1054 n464
*1055 n467
*1056 n468
*1057 n469
*1058 n472
*1059 n473
*1060 n474
*1061 n475
*1062 n476
*1063 n477
*1064 n478
*1065 n479
*1066 n480
*1067 n481
*1068 n482
*1069 n483
*1070 n484
*1071 n485
*1072 n486
*1073 n487
*1074 n488
*1075 n489
*1076 n490
*1077 n493
*1078 n494
*1079 n495
*1080 n499
*1081 n500
*1082 n501
*1083 n502
*1084 n503
*1085 n504
*1086 n505
*1087 n506
*1088 n507
*1089 n508
*1090 n509
*1091 n510
*1092 n511
*1093 n513
*1094 n514
*1095 n515
*1096 n516
*1097 n517
*1098 n518
*1099 n521
*1100 n522
*1101 n523
*1102 n524
*1103 n527
*1104 n528
*1105 n529
*1106 n530
*1107 n531
*1108 n532
*1109 n533
*1110 n534
*1111 n535
*1112 n536
*1113 n537
*1114 n538
*1115 n539
*1116 n540
*1117 n541
*1118 n542
*1119 n543
*1120 n544
*1121 n545
*1122 n546
*1123 n547
*1124 n548
*1125 n549
*1126 n551
*1127 n553
*1128 n554
*1129 n555
*1130 n556
*1131 n557
*1132 n558
*1133 n559
*1134 n560
*1135 n561
*1136 n562
*1137 n563
*1138 n564
*1139 n565
*1140 n566
*1141 n567
*1142 n568
*1143 n569
*1144 n570
*1145 n571
*1146 n572
*1147 n573
*1148 n574
*1149 n575
*1150 n576
*1151 n577
*1152 n578
*1153 n579
*1154 n580
*1155 n581
*1156 n582
*1157 n583
*1158 n584
*1159 n585
*1160 n586
*1161 n587
*1162 n588
*1163 n589
*1164 n590
*1165 n591
*1166 n592
*1167 n593
*1168 n594
*1169 n595
*1170 n596
*1171 n597
*1172 n598
*1173 n599
*1174 n600
*1175 n601
*1176 n602
*1177 n603
*1178 n604
*1179 n605
*1180 n606
*1181 n607
*1182 n608
*1183 n609
*1184 n611
*1185 n612
*1186 n614
*1187 n615
*1188 n616
*1189 n617
*1190 n618
*1191 n619
*1192 n620
*1193 n621
*1194 n622
*1195 n623
*1196 n624
*1197 n625
*1198 n626
*1199 n627
*1200 n628
*1201 n629
*1202 n630
*1203 n631
*1204 n632
*1205 n633
*1206 n634
*1207 n635
*1208 n636
*1209 n637
*1210 n638
*1211 n639
*1212 n640
*1213 n641
*1214 n642
*1215 n643
*1216 n644
*1217 n645
*1218 n646
*1219 n647
*1220 n648
*1221 n649
*1222 n650
*1223 n654
*1224 n655
*1225 n656
*1226 n657
*1227 n658
*1228 n659
*1229 n660
*1230 n661
*1231 n662
*1232 n664
*1233 n665
*1234 n666
*1235 n667
*1236 n668
*1237 n669
*1238 n670
*1239 n671
*1240 n672
*1241 n673
*1242 n674
*1243 n675
*1244 n676
*1245 n677
*1246 n678
*1247 n679
*1248 n680
*1249 n681
*1250 n682
*1251 n683
*1252 n684
*1253 n685
*1254 n686
*1255 n687
*1256 n688
*1257 n689
*1258 n690
*1259 n691
*1260 n692
*1261 n693
*1262 n694
*1263 n695
*1264 n696
*1265 n697
*1266 n698
*1267 n699
*1268 n700
*1269 n701
*1270 n702
*1271 n704
*1272 n706
*1273 n707
*1274 n708
*1275 n709
*1276 n710
*1277 n711
*1278 n712
*1279 n713
*1280 n714
*1281 n715
*1282 n716
*1283 n717
*1284 n718
*1285 n719
*1286 n720
*1287 n721
*1288 n722
*1289 n723
*1290 n724
*1291 n725
*1292 n726
*1293 n727
*1294 n728
*1295 n729
*1296 n730
*1297 n731
*1298 n732
*1299 n733
*1300 n734
*1301 n735
*1302 n736
*1303 n737
*1304 n738
*1305 n739
*1306 n740
*1307 n741
*1308 n742
*1309 n743
*1310 n744
*1311 n745
*1312 n746
*1313 n747
*1314 n748
*1315 n749
*1316 n750
*1317 n751
*1318 n752
*1319 n753
*1320 n754
*1321 n755
*1322 n756
*1323 n757
*1324 n758
*1325 n759
*1326 n760
*1327 n761
*1328 n762
*1329 n763
*1330 n764
*1331 n765
*1332 n766
*1333 n767
*1334 n768
*1335 n769
*1336 n770
*1337 n771
*1338 n772
*1339 n773
*1340 n774
*1341 n775
*1342 n776
*1343 n777
*1344 n778
*1345 n779
*1346 n780
*1347 n781
*1348 n782
*1349 n783
*1350 n784
*1351 n785
*1352 n786
*1353 n787
*1354 n788
*1355 n789
*1356 n790
*1357 n791
*1358 n792
*1359 n793
*1360 n794
*1361 n795
*1362 n796
*1363 n797
*1364 n798
*1365 n799
*1366 n800
*1367 n801
*1368 n802
*1369 n803
*1370 n804
*1371 n805
*1372 n806
*1373 n808
*1374 n809
*1375 n810
*1376 n811
*1377 n812
*1378 n813
*1379 n814
*1380 n815
*1381 n816
*1382 n817
*1383 n818
*1384 n819
*1385 n820
*1386 n821
*1387 n822
*1388 n823
*1389 n824
*1390 n825
*1391 n826
*1392 n827
*1393 n828
*1394 n829
*1395 n830
*1396 n831
*1397 n832
*1398 n833
*1399 n834
*1400 n835
*1401 n836
*1402 n837
*1403 n838
*1404 n839
*1405 n840
*1406 n841
*1407 n842
*1408 n843
*1409 n844
*1410 n845
*1411 n846
*1412 n847
*1413 n848
*1414 n849
*1415 n850
*1416 n851
*1417 n852
*1418 n853
*1419 n854
*1420 n855
*1421 n856
*1422 n857
*1423 n858
*1424 n859
*1425 n860
*1426 n861
*1427 n862
*1428 n863
*1429 n864
*1430 n865
*1431 n866
*1432 n867
*1433 n868
*1434 n869
*1435 n870
*1436 n871
*1437 n872
*1438 n873
*1439 n874
*1440 n875
*1441 n876
*1442 n877
*1443 n878
*1444 n879
*1445 n880
*1446 n881
*1447 n882
*1448 n883
*1449 n884
*1450 n885
*1451 n886
*1452 n887
*1453 n888
*1454 n889
*1455 n890
*1456 n892
*1457 n893
*1458 n894
*1459 n895
*1460 n896
*1461 n897
*1462 n898
*1463 n899
*1464 n900
*1465 n901
*1466 n902
*1467 n903
*1468 n904
*1469 n905
*1470 n906
*1471 n907
*1472 n908
*1473 n909
*1474 n910
*1475 n911
*1476 n912
*1477 n913
*1478 n915
*1479 n916
*1480 n917
*1481 n918
*1482 n919
*1483 n920
*1484 n921
*1485 n922
*1486 n923
*1487 n924
*1488 n925
*1489 n926
*1490 n927
*1491 n928
*1492 n929
*1493 n930
*1494 n931
*1495 n932
*1496 n933
*1497 n934
*1498 n935
*1499 n936
*1500 n937
*1501 n938
*1502 n939
*1503 n940
*1504 n941
*1505 n942
*1506 n943
*1507 n944
*1508 n945
*1509 n946
*1510 n947
*1511 n948
*1512 n950
*1513 n951
*1514 n952
*1515 n953
*1516 n954
*1517 n955
*1518 n956
*1519 n957
*1520 n958
*1521 n959
*1522 n960
*1523 n962
*1524 n963
*1525 n964
*1526 n965
*1527 n966
*1528 n967
*1529 n969
*1530 n971
*1531 n972
*1532 n974
*1533 n975
*1534 n976
*1535 n977
*1536 n978
*1537 n979
*1538 n980
*1539 n981
*1540 n982
*1541 n983
*1542 n984
*1543 n986
*1544 n987
*1545 n988
*1546 n989
*1547 n990
*1548 HFSNET_0
*1549 n992
*1550 n993
*1551 n995
*1552 n996
*1553 n997
*1554 n998
*1555 n999
*1556 n1000
*1557 n1001
*1558 n1002
*1559 n1003
*1560 n1004
*1561 n1005
*1562 n1006
*1563 n1007
*1564 n1008
*1565 n1009
*1566 n1010
*1567 n1011
*1568 n1012
*1569 n1013
*1570 n1014
*1571 n1015
*1572 n1016
*1573 n1017
*1574 n1018
*1575 n1020
*1576 n1021
*1577 n1022
*1578 n1023
*1579 n1024
*1580 n1025
*1581 n1026
*1582 n1027
*1583 n1028
*1584 n1029
*1585 n1030
*1586 n1031
*1587 n1032
*1588 n1033
*1589 n1034
*1590 n1035
*1591 n1036
*1592 n1037
*1593 n1038
*1594 n1039
*1595 n1041
*1596 n1042
*1597 n1043
*1598 n1044
*1599 n1045
*1600 n1046
*1601 n1047
*1602 n1048
*1603 n1049
*1604 n1050
*1605 n1051
*1606 n1052
*1607 n1053
*1608 n1054
*1609 n1055
*1610 n1056
*1611 n1057
*1612 n1058
*1613 n1059
*1614 n1060
*1615 n1061
*1616 n1062
*1617 n1063
*1618 n1064
*1619 n1065
*1620 n1066
*1621 n1067
*1622 n1068
*1623 n1069
*1624 n1070
*1625 n1071
*1626 n1072
*1627 n1073
*1628 n1074
*1629 n1075
*1630 n1076
*1631 n1077
*1632 n1081
*1633 n1082
*1634 n1083
*1635 n1084
*1636 n1085
*1637 n1086
*1638 n1087
*1639 n1088
*1640 n1089
*1641 n1090
*1642 n1091
*1643 n1092
*1644 n1093
*1645 n1094
*1646 n1095
*1647 n1096
*1648 n1097
*1649 n1098
*1650 n1099
*1651 n1100
*1652 n1101
*1653 n1102
*1654 n1103
*1655 n1104
*1656 n1105
*1657 n1106
*1658 n1107
*1659 n1109
*1660 n1110
*1661 n1111
*1662 n1112
*1663 n1113
*1664 n1114
*1665 n1115
*1666 n1116
*1667 n1117
*1668 n1118
*1669 n1119
*1670 n1120
*1671 n1121
*1672 n1122
*1673 n1123
*1674 n1124
*1675 n1125
*1676 n1126
*1677 n1127
*1678 n1128
*1679 n1129
*1680 n1130
*1681 n1131
*1682 n1132
*1683 n1133
*1684 n1134
*1685 n1136
*1686 n1137
*1687 n1138
*1688 n1139
*1689 n1140
*1690 n1141
*1691 n1142
*1692 n1143
*1693 n1144
*1694 n1145
*1695 n1146
*1696 n1147
*1697 n1148
*1698 n1149
*1699 n1150
*1700 n1151
*1701 n1152
*1702 n1153
*1703 n1154
*1704 n1155
*1705 n1156
*1706 n1157
*1707 n1158
*1708 n1159
*1709 n1160
*1710 n1161
*1711 n1163
*1712 n1164
*1713 n1165
*1714 n1166
*1715 n1167
*1716 n1168
*1717 n1169
*1718 n1170
*1719 n1171
*1720 n1172
*1721 n1173
*1722 n1174
*1723 n1175
*1724 n1176
*1725 n1177
*1726 n1178
*1727 n1179
*1728 n1180
*1729 n1181
*1730 n1182
*1731 n1183
*1732 n1184
*1733 n1185
*1734 n1186
*1735 n1187
*1736 n1188
*1737 n1189
*1738 n1190
*1739 n1191
*1740 n1192
*1741 n1193
*1742 n1194
*1743 n1195
*1744 n1196
*1745 n1197
*1746 n1198
*1747 n1199
*1748 n1200
*1749 n1201
*1750 n1202
*1751 n1203
*1752 n1204
*1753 n1205
*1754 n1206
*1755 n1207
*1756 n1209
*1757 n1211
*1758 n1212
*1759 n1213
*1760 n1214
*1761 n1215
*1762 n1216
*1763 n1217
*1764 n1218
*1765 n1219
*1766 n1220
*1767 n1221
*1768 n1222
*1769 n1224
*1770 n1226
*1771 n1227
*1772 n1228
*1773 n1229
*1774 n1230
*1775 n1231
*1776 n1232
*1777 n1233
*1778 n1234
*1779 n1235
*1780 n1236
*1781 n1237
*1782 n1238
*1783 n1239
*1784 n1240
*1785 n1241
*1786 n1242
*1787 n1243
*1788 n1244
*1789 n1245
*1790 n1246
*1791 n1248
*1792 n1249
*1793 n1250
*1794 n1251
*1795 n1252
*1796 n1254
*1797 n1255
*1798 n1256
*1799 n1257
*1800 n1258
*1801 n1259
*1802 n1261
*1803 n1262
*1804 n1263
*1805 n1264
*1806 n1265
*1807 n1267
*1808 n1269
*1809 n1270
*1810 n1272
*1811 n1273
*1812 n1274
*1813 n1275
*1814 n1276
*1815 n1278
*1816 n1279
*1817 n1280
*1818 n1281
*1819 n1282
*1820 n1285
*1821 n1288
*1822 n1289
*1823 n1290
*1824 n1291
*1825 n1292
*1826 n1294
*1827 n1295
*1828 n1296
*1829 n1297
*1830 n1298
*1831 n1299
*1832 n1300
*1833 n1301
*1834 HFSNET_25
*1835 HFSNET_26
*1836 HFSNET_27
*1837 HFSNET_28
*1838 HFSNET_29
*1839 HFSNET_16
*1840 HFSNET_17
*1841 HFSNET_18
*1842 HFSNET_23
*1843 HFSNET_24
*1844 HFSNET_19
*1845 HFSNET_21
*1846 HFSNET_22
*1847 HFSNET_20
*1848 n1341
*1849 n1342
*1850 n1343
*1851 n1344
*1852 n1345
*1853 n1346
*1854 n1347
*1855 n1348
*1856 n1349
*1857 n1350
*1858 n1351
*1859 n1352
*1860 n1353
*1861 n1354
*1862 n1355
*1863 n1356
*1864 HFSNET_1

*PORTS

*1 I *C 49.832 0.143
*2 I *C 51.960 0.143
*3 I *C 54.088 0.143
*4 I *C 53.480 0.143
*5 I *C 52.568 0.143
*6 I *C 51.352 0.143
*7 I *C 50.440 0.143
*8 I *C 49.224 0.143
*9 I *C 48.312 0.143
*10 I *C 47.096 0.143
*11 I *C 46.184 0.143
*12 I *C 44.968 0.143
*13 I *C 44.056 0.143
*14 I *C 42.840 0.143
*15 I *C 41.928 0.143
*16 I *C 40.712 0.143
*17 I *C 39.800 0.143
*18 I *C 38.584 0.143
*19 I *C 37.672 0.143
*20 I *C 36.456 0.143
*21 I *C 35.544 0.143
*22 I *C 34.328 0.143
*23 I *C 33.416 0.143
*24 I *C 32.200 0.143
*25 I *C 31.288 0.143
*26 I *C 30.072 0.143
*27 I *C 29.160 0.143
*28 I *C 27.944 0.143
*29 I *C 27.032 0.143
*30 I *C 25.816 0.143
*31 I *C 24.904 0.143
*32 I *C 23.688 0.143
*33 I *C 22.776 0.143
*34 I *C 21.560 0.143
*35 I *C 20.648 0.143
*36 I *C 19.432 0.143
*37 I *C 18.520 0.143
*38 I *C 17.304 0.143
*39 I *C 16.392 0.143
*40 I *C 15.176 0.143
*41 I *C 14.264 0.143
*42 I *C 13.048 0.143
*43 I *C 12.136 0.143
*44 I *C 10.920 0.143
*45 I *C 10.008 0.143
*46 I *C 8.792 0.143
*47 I *C 7.880 0.143
*48 I *C 6.664 0.143
*49 I *C 5.752 0.143
*50 I *C 4.536 0.143
*51 I *C 3.624 0.143
*52 I *C 2.408 0.143
*53 I *C 54.696 0.143
*54 I *C 55.304 0.143
*55 I *C 55.912 0.143
*56 I *C 56.520 0.143
*57 I *C 57.128 0.143
*58 I *C 58.633 54.696
*59 I *C 58.633 53.480
*60 I *C 58.633 52.264
*61 I *C 58.633 51.048
*62 I *C 58.633 49.832
*63 I *C 58.633 48.616
*64 I *C 58.633 47.400
*65 I *C 58.633 46.184
*66 I *C 58.633 44.968
*67 I *C 58.633 43.752
*68 I *C 58.633 42.536
*69 O *C 58.633 41.320
*70 O *C 58.633 40.104
*71 O *C 58.633 38.888
*72 O *C 58.633 37.672
*73 O *C 58.633 36.456
*74 O *C 58.633 35.240
*75 O *C 58.633 34.024
*76 O *C 58.633 32.808
*77 O *C 58.633 31.592
*78 O *C 58.633 30.376
*79 O *C 58.633 29.160
*80 O *C 58.633 27.944
*81 O *C 58.633 26.728
*82 O *C 58.633 25.512
*83 O *C 58.633 24.296
*84 O *C 58.633 23.080
*85 O *C 58.633 21.864
*86 O *C 58.633 20.648
*87 O *C 58.633 19.432
*88 O *C 58.633 18.216
*89 O *C 58.633 17.000
*90 O *C 58.633 15.784
*91 O *C 58.633 14.568
*92 O *C 58.633 13.352
*93 O *C 58.633 12.136
*94 O *C 58.633 10.920
*95 O *C 58.633 9.704
*96 O *C 58.633 8.488
*97 O *C 58.633 7.272
*98 O *C 58.633 6.056
*99 O *C 58.633 4.840
*100 O *C 58.633 3.624
*101 I *C 29.388 29.388
*102 I *C 29.388 29.388

*D_NET *1 5.722974 //LENGTH 68.138 LUMPCC 0 DR

*CONN
*P *1 I *L 0 *C 49.832 0.258
*I *374:A I *L 0.467042 *C 41.928 10.920
*I *799:A1 I *L 0.397608 *C 40.910 17.760
*I *788:A2 I *L 0.488382 *C 37.370 30.984
*I *103:A1 I *L 0.376973 *C 35.392 39.496
*I *118:A2 I *L 0.419689 *C 35.088 37.672
*I *291:A1 I *L 0.383469 *C 37.216 47.704
*I *224:A1 I *L 0.435869 *C 36.000 47.856
*N *1:8 *C 37.186 40.712
*N *1:9 *C 36.000 47.843
*N *1:10 *C 36.000 47.704
*N *1:11 *C 36.014 47.704
*N *1:12 *C 37.216 47.522
*N *1:13 *C 37.216 47.692
*N *1:14 *C 37.229 47.704
*N *1:15 *C 37.355 47.704
*N *1:16 *C 37.368 47.691
*N *1:17 *C 37.368 40.726
*N *1:18 *C 37.355 40.712
*N *1:19 *C 37.368 40.699
*N *1:20 *C 35.088 37.686
*N *1:21 *C 35.088 39.496
*N *1:22 *C 35.391 39.496
*N *1:23 *C 35.406 39.496
*N *1:24 *C 37.355 39.496
*N *1:25 *C 37.368 39.496
*N *1:26 *C 37.370 30.984
*N *1:27 *C 37.368 28.870
*N *1:28 *C 37.382 28.856
*N *1:29 *C 37.659 28.856
*N *1:30 *C 37.672 28.843
*N *1:31 *C 37.672 22.168
*N *1:32 *C 37.976 22.168
*N *1:33 *C 37.976 17.622
*N *1:34 *C 37.989 17.608
*N *1:35 *C 40.864 17.760
*N *1:36 *C 40.864 17.748
*N *1:37 *C 40.864 17.608
*N *1:38 *C 40.864 17.608
*N *1:39 *C 41.915 17.608
*N *1:40 *C 41.928 17.595
*N *1:41 *C 41.928 10.920
*N *1:42 *C 41.928 9.414
*N *1:43 *C 41.942 9.400
*N *1:44 *C 43.434 9.400
*N *1:45 *C 43.448 9.386
*N *1:46 *C 43.448 9.110
*N *1:47 *C 43.462 9.096
*N *1:48 *C 49.819 9.096
*N *1:49 *C 49.832 9.082

*CAP
0 *1 0.3389069
1 *374:A 0.001
2 *799:A1 0.007246188
3 *788:A2 0.001
4 *103:A1 0.001
5 *118:A2 0.001
6 *291:A1 0.001
7 *224:A1 0.001
8 *1:8 0.01188411
9 *1:9 0.008985415
10 *1:10 0.01012895
11 *1:11 0.05791907
12 *1:12 0.01780593
13 *1:13 0.01310433
14 *1:14 0.06971183
15 *1:15 0.01001383
16 *1:16 0.2663405
17 *1:17 0.2663405
18 *1:18 0.008326148
19 *1:19 0.06494772
20 *1:20 0.09931032
21 *1:21 0.1154864
22 *1:22 0.008551886
23 *1:23 0.08547214
24 *1:24 0.08547214
25 *1:25 0.4968661
26 *1:26 0.5489889
27 *1:27 0.1136214
28 *1:28 0.01722218
29 *1:29 0.01722229
30 *1:30 0.2550724
31 *1:31 0.2697354
32 *1:32 0.1899954
33 *1:33 0.1753323
34 *1:34 0.1271898
35 *1:35 0.005652061
36 *1:36 0.01403555
37 *1:37 0.01385065
38 *1:38 0.1751691
39 *1:39 0.04620037
40 *1:40 0.336801
41 *1:41 0.3991364
42 *1:42 0.06169995
43 *1:43 0.05520309
44 *1:44 0.05520319
45 *1:45 0.01300484
46 *1:46 0.01300499
47 *1:47 0.2168415
48 *1:48 0.2168415
49 *1:49 0.3371281

*RES
0 *1 *1:49 15.75804
1 *1:41 *374:A 1
2 *1:41 *1:40 11.91875
3 *1:42 *1:41 2.690178
4 *1:43 *1:42 0.5
5 *1:44 *1:43 2.666072
6 *1:45 *1:44 0.5
7 *1:46 *1:45 0.4946429
8 *1:47 *1:46 0.5
9 *1:49 *1:48 0.5
10 *1:48 *1:47 2.270357
11 *1:40 *1:39 0.5
12 *1:39 *1:38 1.875893
13 *1:37 *1:36 0.2325
14 *1:38 *1:37 0.5
15 *1:38 *1:34 5.133036
16 *1:35 *799:A1 0.09166668
17 *1:36 *1:35 1
18 *1:26 *788:A2 0.5
19 *1:26 *1:25 15.2
20 *1:34 *1:33 0.5
21 *1:33 *1:32 8.118751
22 *1:29 *1:28 0.4946429
23 *1:30 *1:29 0.5
24 *1:27 *1:26 3.775893
25 *1:28 *1:27 0.5
26 *1:13 *291:A1 1
27 *1:13 *1:12 0.2825
28 *1:14 *1:13 0.5
29 *1:14 *1:11 2.169643
30 *1:19 *1:18 0.5
31 *1:18 *1:17 0.5
32 *1:18 *1:8 0.2825
33 *1:17 *1:16 12.4375
34 *1:15 *1:14 0.2116667
35 *1:16 *1:15 0.5
36 *1:10 *1:9 0.2325
37 *1:11 *1:10 0.5
38 *1:9 *224:A1 1
39 *1:25 *1:24 0.5
40 *1:25 *1:19 2.147322
41 *1:24 *1:23 3.480358
42 *1:22 *103:A1 1
43 *1:22 *1:21 0.5410715
44 *1:23 *1:22 0.5
45 *1:20 *118:A2 1
46 *1:21 *1:20 3.233036
47 *1:31 *1:30 11.91875
48 *1:32 *1:31 0.5428572

*END

*D_NET *2 6.133408 //LENGTH 66.092 LUMPCC 0 DR

*CONN
*P *2 I *L 0 *C 51.960 0.258
*I *792:A3 I *L 0.507548 *C 41.928 6.968
*I *792:A1 I *L 0.514394 *C 42.384 7.728
*I *740:A I *L 0.467042 *C 39.162 19.432
*I *103:A3 I *L 0.408332 *C 35.948 40.104
*I *226:A1 I *L 0.376973 *C 35.088 41.016
*I *785:A4 I *L 0.386088 *C 31.896 41.168
*I *445:A I *L 0.467042 *C 42.688 17.608
*N *2:8 *C 42.688 17.426
*N *2:9 *C 42.688 17.596
*N *2:10 *C 42.675 17.608
*N *2:11 *C 31.896 41.156
*N *2:12 *C 31.896 41.016
*N *2:13 *C 31.910 41.016
*N *2:14 *C 35.088 40.834
*N *2:15 *C 35.088 41.004
*N *2:16 *C 35.088 41.016
*N *2:17 *C 36.139 41.016
*N *2:18 *C 36.152 41.003
*N *2:19 *C 36.152 40.104
*N *2:20 *C 36.000 40.104
*N *2:21 *C 36.001 40.104
*N *2:22 *C 36.014 40.104
*N *2:23 *C 38.723 40.104
*N *2:24 *C 38.736 40.090
*N *2:25 *C 38.736 19.432
*N *2:26 *C 38.903 19.432
*N *2:27 *C 38.888 19.419
*N *2:28 *C 38.888 17.925
*N *2:29 *C 38.901 17.912
*N *2:30 *C 42.232 17.912
*N *2:31 *C 42.232 17.608
*N *2:32 *C 42.232 17.595
*N *2:33 *C 42.232 15.798
*N *2:34 *C 42.245 15.784
*N *2:35 *C 42.675 15.784
*N *2:36 *C 42.688 15.771
*N *2:37 *C 42.384 7.715
*N *2:38 *C 42.384 7.272
*N *2:39 *C 41.928 6.982
*N *2:40 *C 41.928 7.259
*N *2:41 *C 41.942 7.272
*N *2:42 *C 42.523 7.272
*N *2:43 *C 42.536 7.272
*N *2:44 *C 42.688 7.272
*N *2:45 *C 42.688 1.510
*N *2:46 *C 42.702 1.496
*N *2:47 *C 51.947 1.496
*N *2:48 *C 51.960 1.483

*CAP
0 *2 0.0456355
1 *792:A3 0.001
2 *792:A1 0.001
3 *740:A 0.01655329
4 *103:A3 0.008747823
5 *226:A1 0.001
6 *785:A4 0.001
7 *445:A 0.001
8 *2:8 0.01293986
9 *2:9 0.00823826
10 *2:10 0.022292
11 *2:11 0.01565462
12 *2:12 0.01679816
13 *2:13 0.1369391
14 *2:14 0.02039422
15 *2:15 0.01569262
16 *2:16 0.1854892
17 *2:17 0.04677106
18 *2:18 0.06566504
19 *2:19 0.07540085
20 *2:20 0.007153696
21 *2:21 0.004583613
22 *2:22 0.1242543
23 *2:23 0.1242543
24 *2:24 1.032501
25 *2:25 1.041569
26 *2:26 0.01495916
27 *2:27 0.07671744
28 *2:28 0.06924354
29 *2:29 0.1532618
30 *2:30 0.1671835
31 *2:31 0.0344348
32 *2:32 0.08782812
33 *2:33 0.08782812
34 *2:34 0.01911987
35 *2:35 0.01911977
36 *2:36 0.437612
37 *2:37 0.02499262
38 *2:38 0.03437174
39 *2:39 0.01976971
40 *2:40 0.02091324
41 *2:41 0.02801453
42 *2:42 0.02801453
43 *2:43 0.01113407
44 *2:44 0.7279468
45 *2:45 0.2803202
46 *2:46 0.3571191
47 *2:47 0.3571192
48 *2:48 0.04385656

*RES
0 *2 *2:48 2.186607
1 *2:45 *2:44 10.29018
2 *2:46 *2:45 0.5
3 *2:47 *2:46 16.50893
4 *2:48 *2:47 0.5
5 *2:37 *792:A1 1
6 *2:9 *445:A 1
7 *2:9 *2:8 0.2825
8 *2:10 *2:9 0.5
9 *2:36 *2:35 0.5
10 *2:35 *2:34 0.7660714
11 *2:34 *2:33 0.5
12 *2:33 *2:32 3.208929
13 *2:31 *2:30 0.5428572
14 *2:31 *2:10 0.7901785
15 *2:32 *2:31 0.5
16 *2:43 *2:42 0.5
17 *2:43 *2:38 0.2714286