*SPEF "IEEE 1481-1999"
*DESIGN "msrv32_alu"
*DATE "Wed Apr 23 21:58:45 2025"
*VENDOR "SYNOPSYS INC"
*PROGRAM "Synopsys Design Compiler (R) NXT cmos"
*VERSION "T-2022.03-SP4"
*DESIGN_FLOW "SYNTHESIS"
*DIVIDER /
*DELIMITER :
*BUS_DELIMITER []
*T_UNIT 1.0 NS
*C_UNIT 0.0010 PF
*R_UNIT 1000.0 KOHM
*L_UNIT 1.0 HENRY

*PORTS

op_1_in\[31\] I *L 0.000e+00 *S 0.000e+00 0.000e+00 
op_1_in\[30\] I *L 0.000e+00 *S 0.000e+00 0.000e+00 
op_1_in\[29\] I *L 0.000e+00 *S 0.000e+00 0.000e+00 
op_1_in\[28\] I *L 0.000e+00 *S 0.000e+00 0.000e+00 
op_1_in\[27\] I *L 0.000e+00 *S 0.000e+00 0.000e+00 
op_1_in\[26\] I *L 0.000e+00 *S 0.000e+00 0.000e+00 
op_1_in\[25\] I *L 0.000e+00 *S 0.000e+00 0.000e+00 
op_1_in\[24\] I *L 0.000e+00 *S 0.000e+00 0.000e+00 
op_1_in\[23\] I *L 0.000e+00 *S 0.000e+00 0.000e+00 
op_1_in\[22\] I *L 0.000e+00 *S 0.000e+00 0.000e+00 
op_1_in\[21\] I *L 0.000e+00 *S 0.000e+00 0.000e+00 
op_1_in\[20\] I *L 0.000e+00 *S 0.000e+00 0.000e+00 
op_1_in\[19\] I *L 0.000e+00 *S 0.000e+00 0.000e+00 
op_1_in\[18\] I *L 0.000e+00 *S 0.000e+00 0.000e+00 
op_1_in\[17\] I *L 0.000e+00 *S 0.000e+00 0.000e+00 
op_1_in\[16\] I *L 0.000e+00 *S 0.000e+00 0.000e+00 
op_1_in\[15\] I *L 0.000e+00 *S 0.000e+00 0.000e+00 
op_1_in\[14\] I *L 0.000e+00 *S 0.000e+00 0.000e+00 
op_1_in\[13\] I *L 0.000e+00 *S 0.000e+00 0.000e+00 
op_1_in\[12\] I *L 0.000e+00 *S 0.000e+00 0.000e+00 
op_1_in\[11\] I *L 0.000e+00 *S 0.000e+00 0.000e+00 
op_1_in\[10\] I *L 0.000e+00 *S 0.000e+00 0.000e+00 
op_1_in\[9\] I *L 0.000e+00 *S 0.000e+00 0.000e+00 
op_1_in\[8\] I *L 0.000e+00 *S 0.000e+00 0.000e+00 
op_1_in\[7\] I *L 0.000e+00 *S 0.000e+00 0.000e+00 
op_1_in\[6\] I *L 0.000e+00 *S 0.000e+00 0.000e+00 
op_1_in\[5\] I *L 0.000e+00 *S 0.000e+00 0.000e+00 
op_1_in\[4\] I *L 0.000e+00 *S 0.000e+00 0.000e+00 
op_1_in\[3\] I *L 0.000e+00 *S 0.000e+00 0.000e+00 
op_1_in\[2\] I *L 0.000e+00 *S 0.000e+00 0.000e+00 
op_1_in\[1\] I *L 0.000e+00 *S 0.000e+00 0.000e+00 
op_1_in\[0\] I *L 0.000e+00 *S 0.000e+00 0.000e+00 
op_2_in\[31\] I *L 0.000e+00 *S 0.000e+00 0.000e+00 
op_2_in\[30\] I *L 0.000e+00 *S 0.000e+00 0.000e+00 
op_2_in\[29\] I *L 0.000e+00 *S 0.000e+00 0.000e+00 
op_2_in\[28\] I *L 0.000e+00 *S 0.000e+00 0.000e+00 
op_2_in\[27\] I *L 0.000e+00 *S 0.000e+00 0.000e+00 
op_2_in\[26\] I *L 0.000e+00 *S 0.000e+00 0.000e+00 
op_2_in\[25\] I *L 0.000e+00 *S 0.000e+00 0.000e+00 
op_2_in\[24\] I *L 0.000e+00 *S 0.000e+00 0.000e+00 
op_2_in\[23\] I *L 0.000e+00 *S 0.000e+00 0.000e+00 
op_2_in\[22\] I *L 0.000e+00 *S 0.000e+00 0.000e+00 
op_2_in\[21\] I *L 0.000e+00 *S 0.000e+00 0.000e+00 
op_2_in\[20\] I *L 0.000e+00 *S 0.000e+00 0.000e+00 
op_2_in\[19\] I *L 0.000e+00 *S 0.000e+00 0.000e+00 
op_2_in\[18\] I *L 0.000e+00 *S 0.000e+00 0.000e+00 
op_2_in\[17\] I *L 0.000e+00 *S 0.000e+00 0.000e+00 
op_2_in\[16\] I *L 0.000e+00 *S 0.000e+00 0.000e+00 
op_2_in\[15\] I *L 0.000e+00 *S 0.000e+00 0.000e+00 
op_2_in\[14\] I *L 0.000e+00 *S 0.000e+00 0.000e+00 
op_2_in\[13\] I *L 0.000e+00 *S 0.000e+00 0.000e+00 
op_2_in\[12\] I *L 0.000e+00 *S 0.000e+00 0.000e+00 
op_2_in\[11\] I *L 0.000e+00 *S 0.000e+00 0.000e+00 
op_2_in\[10\] I *L 0.000e+00 *S 0.000e+00 0.000e+00 
op_2_in\[9\] I *L 0.000e+00 *S 0.000e+00 0.000e+00 
op_2_in\[8\] I *L 0.000e+00 *S 0.000e+00 0.000e+00 
op_2_in\[7\] I *L 0.000e+00 *S 0.000e+00 0.000e+00 
op_2_in\[6\] I *L 0.000e+00 *S 0.000e+00 0.000e+00 
op_2_in\[5\] I *L 0.000e+00 *S 0.000e+00 0.000e+00 
op_2_in\[4\] I *L 0.000e+00 *S 0.000e+00 0.000e+00 
op_2_in\[3\] I *L 0.000e+00 *S 0.000e+00 0.000e+00 
op_2_in\[2\] I *L 0.000e+00 *S 0.000e+00 0.000e+00 
op_2_in\[1\] I *L 0.000e+00 *S 0.000e+00 0.000e+00 
op_2_in\[0\] I *L 0.000e+00 *S 0.000e+00 0.000e+00 
opcode_in\[3\] I *L 0.000e+00 *S 0.000e+00 0.000e+00 
opcode_in\[2\] I *L 0.000e+00 *S 0.000e+00 0.000e+00 
opcode_in\[1\] I *L 0.000e+00 *S 0.000e+00 0.000e+00 
opcode_in\[0\] I *L 0.000e+00 *S 0.000e+00 0.000e+00 
result_out\[31\] O *L 0.000e+00 *S 1.206e-02 1.242e-02 
result_out\[30\] O *L 0.000e+00 *S 1.139e-02 1.479e-02 
result_out\[29\] O *L 0.000e+00 *S 8.121e-03 8.354e-03 
result_out\[28\] O *L 0.000e+00 *S 9.707e-03 9.999e-03 
result_out\[27\] O *L 0.000e+00 *S 3.910e-02 5.279e-02 
result_out\[26\] O *L 0.000e+00 *S 4.613e-02 6.310e-02 
result_out\[25\] O *L 0.000e+00 *S 4.649e-02 6.362e-02 
result_out\[24\] O *L 0.000e+00 *S 5.368e-02 7.417e-02 
result_out\[23\] O *L 0.000e+00 *S 5.489e-02 7.609e-02 
result_out\[22\] O *L 0.000e+00 *S 5.763e-02 8.044e-02 
result_out\[21\] O *L 0.000e+00 *S 3.779e-02 3.740e-02 
result_out\[20\] O *L 0.000e+00 *S 3.968e-02 3.918e-02 
result_out\[19\] O *L 0.000e+00 *S 3.976e-02 5.409e-02 
result_out\[18\] O *L 0.000e+00 *S 2.915e-02 3.893e-02 
result_out\[17\] O *L 0.000e+00 *S 4.444e-02 6.093e-02 
result_out\[16\] O *L 0.000e+00 *S 4.223e-02 5.769e-02 
result_out\[15\] O *L 0.000e+00 *S 1.449e-03 1.580e-03 
result_out\[14\] O *L 0.000e+00 *S 3.832e-02 5.165e-02 
result_out\[13\] O *L 0.000e+00 *S 9.810e-04 1.070e-03 
result_out\[12\] O *L 0.000e+00 *S 2.506e-03 2.733e-03 
result_out\[11\] O *L 0.000e+00 *S 1.842e-02 2.447e-02 
result_out\[10\] O *L 0.000e+00 *S 2.835e-02 3.743e-02 
result_out\[9\] O *L 0.000e+00 *S 1.434e-02 1.893e-02 
result_out\[8\] O *L 0.000e+00 *S 1.502e-02 1.989e-02 
result_out\[7\] O *L 0.000e+00 *S 1.458e-02 1.927e-02 
result_out\[6\] O *L 0.000e+00 *S 2.867e-03 3.127e-03 
result_out\[5\] O *L 0.000e+00 *S 2.354e-02 3.115e-02 
result_out\[4\] O *L 0.000e+00 *S 3.501e-02 4.680e-02 
result_out\[3\] O *L 0.000e+00 *S 7.958e-03 8.754e-03 
result_out\[2\] O *L 0.000e+00 *S 5.321e-03 5.830e-03 
result_out\[1\] O *L 0.000e+00 *S 1.534e-02 1.672e-02 
result_out\[0\] O *L 0.000e+00 *S 1.230e-02 1.346e-02 

*R_NET op_1_in\[31\] 1.536e+01
*DRIVER op_1_in\[31\]
*CELL NULL
*C2_R1_C1 7.682e+00 1.630e-04 7.682e+00 
*LOADS
*RC U447:A1 4.950e-05
*RC U469:A2 1.644e-04
*RC U609:A1 1.255e-04
*RC U687:A1 1.020e-04
*RC U778:A 8.907e-04
*RC U1197:A2 7.557e-04
*RC U1208:A1 8.482e-04
*END

*R_NET op_1_in\[30\] 1.818e+01
*DRIVER op_1_in\[30\]
*CELL NULL
*C2_R1_C1 9.091e+00 2.037e-04 9.091e+00 
*LOADS
*RC U447:A3 1.020e-04
*RC U611:A1 1.765e-04
*RC U851:A 1.166e-03
*RC U1148:A 1.163e-03
*RC U1194:A4 2.893e-04
*RC U1201:A3 1.206e-03
*RC U1201:A1 1.214e-03
*END

*R_NET op_1_in\[29\] 1.986e+01
*DRIVER op_1_in\[29\]
*CELL NULL
*C2_R1_C1 9.929e+00 1.729e-04 9.929e+00 
*LOADS
*RC U450:A1 8.830e-04
*RC U611:A3 9.265e-04
*RC U854:A 3.818e-04
*RC U859:A1 3.103e-04
*RC U862:A2 3.539e-04
*RC U1140:A2 7.475e-04
*RC U1183:A3 2.827e-04
*RC U1183:A1 2.729e-04
*RC U1194:A6 7.632e-04
*RC U1217:A2 5.369e-04
*RC U1226:A1 4.993e-04
*END

*R_NET op_1_in\[28\] 1.816e+01
*DRIVER op_1_in\[28\]
*CELL NULL
*C2_R1_C1 9.081e+00 1.676e-04 9.081e+00 
*LOADS
*RC U450:A3 7.637e-04
*RC U613:A1 8.416e-04
*RC U853:A 3.204e-04
*RC U1140:A4 6.412e-04
*RC U1182:A3 2.279e-04
*RC U1182:A1 2.189e-04
*RC U1194:A2 6.672e-04
*RC U1214:A2 6.871e-04
*RC U1235:A2 4.969e-04
*RC U1244:A1 4.298e-04
*END

*R_NET op_1_in\[27\] 2.035e+01
*DRIVER op_1_in\[27\]
*CELL NULL
*C2_R1_C1 1.018e+01 1.658e-04 1.018e+01 
*LOADS
*RC U1181:A3 8.633e-04
*RC U1181:A1 8.760e-04
*RC U453:A1 7.903e-05
*RC U613:A3 3.438e-04
*RC U782:A1 8.542e-04
*RC U785:A3 8.374e-04
*RC U1140:A6 5.872e-04
*RC U1191:A1 4.686e-04
*RC U1214:A4 5.124e-04
*RC U1232:A2 4.585e-04
*RC U1259:A1 7.393e-04
*RC U1261:A 7.327e-04
*END

*R_NET op_1_in\[26\] 2.048e+01
*DRIVER op_1_in\[26\]
*CELL NULL
*C2_R1_C1 1.024e+01 1.775e-04 1.024e+01 
*LOADS
*RC U453:A3 1.658e-04
*RC U614:A1 2.520e-04
*RC U785:A1 7.489e-04
*RC U790:A 8.107e-04
*RC U1138:A1 3.658e-04
*RC U1180:A3 9.492e-04
*RC U1180:A1 9.636e-04
*RC U1191:A2 3.925e-04
*RC U1214:A6 6.203e-04
*RC U1232:A4 5.442e-04
*RC U1277:A1 7.084e-04
*END

*R_NET op_1_in\[25\] 1.934e+01
*DRIVER op_1_in\[25\]
*CELL NULL
*C2_R1_C1 9.672e+00 1.572e-04 9.672e+00 
*LOADS
*RC U454:A1 6.326e-04
*RC U614:A3 7.046e-04
*RC U788:A3 3.193e-04
*RC U789:A 3.298e-04
*RC U1138:A2 4.907e-04
*RC U1179:A3 2.231e-04
*RC U1179:A1 2.278e-04
*RC U1191:A3 4.671e-04
*RC U1211:A1 4.140e-04
*RC U1232:A6 7.902e-04
*RC U1293:A1 5.593e-04
*END

*R_NET op_1_in\[24\] 1.611e+01
*DRIVER op_1_in\[24\]
*CELL NULL
*C2_R1_C1 8.053e+00 1.150e-04 8.053e+00 
*LOADS
*RC U454:A3 5.371e-04
*RC U617:A1 4.621e-04
*RC U788:A1 2.658e-04
*RC U850:A1 1.577e-04
*RC U1138:A3 4.016e-04
*RC U1178:A3 1.352e-04
*RC U1178:A1 1.390e-04
*RC U1191:A4 3.896e-04
*RC U1211:A2 3.377e-04
*RC U1229:A1 2.984e-04
*RC U1309:A1 4.069e-04
*RC U1311:A 2.220e-04
*END

*R_NET op_1_in\[23\] 1.592e+01
*DRIVER op_1_in\[23\]
*CELL NULL
*C2_R1_C1 7.958e+00 1.018e-04 7.958e+00 
*LOADS
*RC U458:A1 4.002e-04
*RC U617:A3 4.168e-04
*RC U796:A3 1.608e-04
*RC U796:A1 1.647e-04
*RC U797:A1 8.761e-05
*RC U1138:A4 3.492e-04
*RC U1177:A3 1.051e-04
*RC U1177:A1 1.088e-04
*RC U1192:A1 2.267e-04
*RC U1211:A3 2.782e-04
*RC U1229:A2 2.396e-04
*RC U1326:A1 4.115e-04
*RC U1328:A 2.273e-04
*END

*R_NET op_1_in\[22\] 1.550e+01
*DRIVER op_1_in\[22\]
*CELL NULL
*C2_R1_C1 7.751e+00 8.702e-05 7.751e+00 
*LOADS
*RC U458:A3 3.187e-04
*RC U618:A1 3.749e-04
*RC U737:A0 8.381e-05
*RC U738:A1 3.097e-04
*RC U741:A 3.564e-04
*RC U744:A1 2.417e-04
*RC U795:A2 2.080e-04
*RC U797:A3 1.645e-04
*RC U1176:A3 3.832e-05
*RC U1176:A1 4.165e-05
*RC U1192:A2 3.059e-04
*RC U1211:A4 2.479e-04
*RC U1229:A3 2.352e-04
*END

*R_NET op_1_in\[21\] 1.713e+01
*DRIVER op_1_in\[21\]
*CELL NULL
*C2_R1_C1 8.565e+00 1.379e-04 8.565e+00 
*LOADS
*RC U459:A1 1.512e-04
*RC U618:A3 2.384e-04
*RC U735:A3 5.329e-04
*RC U735:A1 5.445e-04
*RC U744:A2 3.997e-04
*RC U799:A1 6.529e-04
*RC U801:A 6.818e-04
*RC U1192:A3 5.356e-04
*RC U1212:A1 3.374e-04
*RC U1229:A4 4.923e-04
*RC U1347:A1 5.502e-04
*END

*R_NET op_1_in\[20\] 1.635e+01
*DRIVER op_1_in\[20\]
*CELL NULL
*C2_R1_C1 8.173e+00 1.262e-04 8.173e+00 
*LOADS
*RC U459:A3 1.390e-04
*RC U620:A1 2.189e-04
*RC U734:A3 4.514e-04
*RC U734:A1 4.623e-04
*RC U744:A3 3.883e-04
*RC U798:A 6.403e-04
*RC U846:A1 6.060e-04
*RC U1192:A4 5.122e-04
*RC U1212:A2 3.328e-04
*RC U1230:A1 2.820e-04
*RC U1363:A1 4.260e-04
*END

*R_NET op_1_in\[19\] 1.209e+01
*DRIVER op_1_in\[19\]
*CELL NULL
*C2_R1_C1 6.045e+00 7.236e-05 6.045e+00 
*LOADS
*RC U696:A1 6.476e-05
*RC U462:A1 7.494e-05
*RC U620:A3 1.463e-04
*RC U705:A 1.675e-04
*RC U733:A3 1.109e-04
*RC U733:A1 1.183e-04
*RC U744:A4 1.886e-04
*RC U803:A1 1.097e-04
*RC U805:A3 1.298e-04
*RC U1212:A3 1.472e-04
*RC U1230:A2 1.115e-04
*END

*R_NET op_1_in\[18\] 9.959e+00
*DRIVER op_1_in\[18\]
*CELL NULL
*C2_R1_C1 4.979e+00 5.565e-05 4.979e+00 
*LOADS
*RC U696:A2 6.055e-05
*RC U661:A1 9.963e-05
*RC U462:A3 6.558e-05
*RC U621:A1 9.418e-05
*RC U670:A 1.031e-04
*RC U703:A3 5.257e-05
*RC U703:A1 5.861e-05
*RC U805:A1 1.044e-04
*RC U1212:A4 1.253e-04
*RC U1230:A3 9.484e-05
*END

*R_NET op_1_in\[17\] 9.605e+00
*DRIVER op_1_in\[17\]
*CELL NULL
*C2_R1_C1 4.802e+00 5.075e-05 4.802e+00 
*LOADS
*RC U696:A3 4.074e-05
*RC U661:A2 8.310e-05
*RC U463:A1 6.485e-05
*RC U621:A3 7.449e-05
*RC U627:A1 1.254e-04
*RC U636:A 1.162e-04
*RC U668:A3 3.264e-05
*RC U668:A1 3.838e-05
*RC U806:A3 9.346e-05
*RC U1230:A4 7.435e-05
*END

*R_NET op_1_in\[16\] 1.301e+01
*DRIVER op_1_in\[16\]
*CELL NULL
*C2_R1_C1 6.506e+00 8.800e-05 6.506e+00 
*LOADS
*RC U696:A4 4.644e-05
*RC U661:A3 1.020e-04
*RC U463:A3 7.940e-05
*RC U481:A1 3.671e-04
*RC U579:A 2.854e-04
*RC U627:A2 1.644e-04
*RC U634:A3 9.151e-05
*RC U634:A1 9.925e-05
*RC U806:A1 1.275e-04
*RC U842:A1 2.878e-04
*RC U874:A1 1.494e-04
*END

*R_NET op_1_in\[15\] 1.579e+01
*DRIVER op_1_in\[15\]
*CELL NULL
*C2_R1_C1 7.893e+00 1.055e-04 7.893e+00 
*LOADS
*RC U661:A4 1.030e-04
*RC U481:A2 3.831e-04
*RC U572:A3 4.240e-04
*RC U572:A1 4.345e-04
*RC U627:A3 1.613e-04
*RC U714:A1 3.110e-04
*RC U760:A1 7.074e-05
*RC U810:A1 5.202e-04
*RC U811:A3 4.768e-04
*RC U815:A1 4.911e-04
*RC U874:A3 1.158e-04
*RC U1131:A5 4.359e-04
*RC U1133:A 5.107e-04
*END

*R_NET op_1_in\[14\] 1.952e+01
*DRIVER op_1_in\[14\]
*CELL NULL
*C2_R1_C1 9.760e+00 1.581e-04 9.760e+00 
*LOADS
*RC U481:A3 5.210e-04
*RC U571:A3 7.753e-04
*RC U571:A1 7.887e-04
*RC U627:A4 3.820e-04
*RC U680:A1 4.141e-04
*RC U714:A2 4.514e-04
*RC U760:A3 1.509e-04
*RC U811:A1 7.652e-04
*RC U815:A3 7.804e-04
*RC U875:A1 2.413e-04
*RC U1112:A 8.406e-04
*RC U1116:A1 8.636e-04
*END

*R_NET op_1_in\[13\] 1.852e+01
*DRIVER op_1_in\[13\]
*CELL NULL
*C2_R1_C1 9.261e+00 1.497e-04 9.261e+00 
*LOADS
*RC U481:A4 4.779e-04
*RC U570:A3 7.348e-04
*RC U570:A1 7.412e-04
*RC U646:A1 3.118e-04
*RC U680:A2 3.874e-04
*RC U714:A3 4.186e-04
*RC U761:A1 4.144e-05
*RC U814:A3 7.302e-04
*RC U814:A1 7.367e-04
*RC U838:A 7.913e-04
*RC U875:A3 2.056e-04
*RC U1102:A5 8.663e-04
*END

*R_NET op_1_in\[12\] 1.626e+01
*DRIVER op_1_in\[12\]
*CELL NULL
*C2_R1_C1 8.132e+00 1.467e-04 8.132e+00 
*LOADS
*RC U569:A3 6.924e-04
*RC U569:A1 6.986e-04
*RC U597:A1 3.739e-04
*RC U646:A2 2.656e-04
*RC U680:A3 3.288e-04
*RC U714:A4 3.502e-04
*RC U761:A3 4.299e-05
*RC U812:A 6.972e-04
*RC U877:A1 2.019e-04
*RC U1088:A5 7.420e-04
*END

*R_NET op_1_in\[11\] 1.939e+01
*DRIVER op_1_in\[11\]
*CELL NULL
*C2_R1_C1 9.695e+00 1.548e-04 9.695e+00 
*LOADS
*RC U568:A3 3.886e-04
*RC U568:A1 3.939e-04
*RC U597:A2 5.079e-04
*RC U646:A3 6.376e-04
*RC U680:A4 5.699e-04
*RC U695:A1 6.177e-04
*RC U763:A1 6.780e-04
*RC U817:A1 5.169e-04
*RC U819:A3 4.861e-04
*RC U877:A3 7.306e-04
*RC U1067:A 6.041e-04
*RC U1073:A1 6.942e-04
*END

*R_NET op_1_in\[10\] 1.847e+01
*DRIVER op_1_in\[10\]
*CELL NULL
*C2_R1_C1 9.233e+00 1.553e-04 9.233e+00 
*LOADS
*RC U567:A3 2.902e-04
*RC U567:A1 2.950e-04
*RC U597:A3 4.578e-04
*RC U646:A4 5.905e-04
*RC U660:A1 6.137e-04
*RC U695:A2 5.639e-04
*RC U763:A3 6.384e-04
*RC U819:A1 4.739e-04
*RC U822:A 5.006e-04
*RC U878:A1 6.454e-04
*RC U1056:A1 5.371e-04
*END

*R_NET op_1_in\[9\] 1.964e+01
*DRIVER op_1_in\[9\]
*CELL NULL
*C2_R1_C1 9.820e+00 1.701e-04 9.820e+00 
*LOADS
*RC U566:A3 5.777e-04
*RC U566:A1 5.837e-04
*RC U597:A4 4.996e-04
*RC U626:A1 5.813e-04
*RC U660:A2 6.567e-04
*RC U695:A3 6.023e-04
*RC U764:A1 7.538e-04
*RC U820:A3 7.787e-04
*RC U821:A 6.275e-04
*RC U878:A3 7.082e-04
*RC U1040:A1 6.984e-04
*END

*R_NET op_1_in\[8\] 1.813e+01
*DRIVER op_1_in\[8\]
*CELL NULL
*C2_R1_C1 9.067e+00 1.483e-04 9.067e+00 
*LOADS
*RC U474:A1 7.423e-04
*RC U565:A3 3.731e-05
*RC U565:A1 3.099e-05
*RC U626:A2 6.444e-04
*RC U660:A3 7.126e-04
*RC U695:A4 7.189e-04
*RC U764:A3 8.216e-04
*RC U820:A1 1.051e-04
*RC U835:A3 1.606e-04
*RC U881:A1 8.691e-04
*RC U1017:A 1.538e-04
*RC U1022:A1 2.035e-04
*END

*R_NET op_1_in\[7\] 2.056e+01
*DRIVER op_1_in\[7\]
*CELL NULL
*C2_R1_C1 1.028e+01 1.736e-04 1.028e+01 
*LOADS
*RC U474:A2 6.525e-04
*RC U564:A3 2.599e-04
*RC U564:A1 2.496e-04
*RC U626:A3 7.541e-04
*RC U660:A4 8.350e-04
*RC U713:A1 8.149e-04
*RC U767:A1 8.741e-04
*RC U835:A1 7.110e-05
*RC U836:A2 5.841e-05
*RC U881:A3 9.025e-04
*RC U997:A 3.295e-04
*RC U1002:A1 4.418e-04
*END

*R_NET op_1_in\[6\] 1.983e+01
*DRIVER op_1_in\[6\]
*CELL NULL
*C2_R1_C1 9.916e+00 1.657e-04 9.916e+00 
*LOADS
*RC U474:A3 6.706e-04
*RC U563:A3 2.766e-04
*RC U563:A1 2.668e-04
*RC U626:A4 7.840e-04
*RC U679:A1 8.141e-04
*RC U713:A2 7.293e-04
*RC U767:A3 9.027e-04
*RC U834:A3 1.070e-04
*RC U834:A1 9.659e-05
*RC U882:A1 8.999e-04
*RC U986:A5 3.745e-04
*RC U987:A 3.934e-04
*END

*R_NET op_1_in\[5\] 1.782e+01
*DRIVER op_1_in\[5\]
*CELL NULL
*C2_R1_C1 8.911e+00 1.466e-04 8.911e+00 
*LOADS
*RC U474:A4 3.604e-04
*RC U562:A3 8.279e-04
*RC U562:A1 8.347e-04
*RC U645:A1 3.077e-04
*RC U679:A2 3.277e-04
*RC U713:A3 3.767e-04
*RC U768:A1 2.316e-05
*RC U833:A3 8.873e-04
*RC U833:A1 8.943e-04
*RC U882:A3 1.574e-04
*RC U961:A 8.521e-04
*RC U966:A1 8.214e-04
*END

*R_NET op_1_in\[4\] 1.858e+01
*DRIVER op_1_in\[4\]
*CELL NULL
*C2_R1_C1 9.291e+00 1.477e-04 9.291e+00 
*LOADS
*RC U561:A3 6.921e-04
*RC U561:A1 6.985e-04
*RC U595:A6 2.620e-04
*RC U645:A2 4.264e-04
*RC U679:A3 2.959e-04
*RC U713:A4 3.675e-04
*RC U768:A3 1.498e-04
*RC U832:A3 5.035e-04
*RC U832:A1 5.091e-04
*RC U884:A1 1.846e-04
*RC U941:A 8.527e-04
*RC U946:A1 7.827e-04
*END

*R_NET op_1_in\[3\] 1.424e+01
*DRIVER op_1_in\[3\]
*CELL NULL
*C2_R1_C1 7.119e+00 8.963e-05 7.119e+00 
*LOADS
*RC U560:A3 2.710e-04
*RC U560:A1 2.752e-04
*RC U595:A4 2.192e-04
*RC U645:A3 3.109e-04
*RC U679:A4 2.040e-04
*RC U707:A2 1.523e-04
*RC U770:A1 4.770e-05
*RC U829:A1 1.435e-04
*RC U831:A1 1.784e-04
*RC U884:A3 1.126e-04
*RC U931:A5 3.694e-04
*RC U932:A 2.661e-04
*END

*R_NET op_1_in\[2\] 1.323e+01
*DRIVER op_1_in\[2\]
*CELL NULL
*C2_R1_C1 6.615e+00 8.672e-05 6.615e+00 
*LOADS
*RC U559:A3 2.376e-04
*RC U559:A1 2.415e-04
*RC U594:A4 1.567e-04
*RC U645:A4 2.691e-04
*RC U707:A1 1.167e-04
*RC U770:A3 1.845e-05
*RC U827:A3 7.395e-05
*RC U830:A2 1.210e-04
*RC U885:A1 4.808e-05
*RC U912:A5 3.254e-04
*RC U913:A 2.539e-04
*END

*R_NET op_1_in\[1\] 9.728e+00
*DRIVER op_1_in\[1\]
*CELL NULL
*C2_R1_C1 4.864e+00 6.265e-05 4.864e+00 
*LOADS
*RC U558:A1 1.194e-04
*RC U594:A2 1.742e-04
*RC U638:A2 1.591e-04
*RC U707:A4 6.157e-05
*RC U771:A1 7.352e-05
*RC U827:A1 1.122e-04
*RC U885:A3 3.931e-05
*RC U893:A5 1.308e-04
*RC U894:A 1.213e-04
*END

*R_NET op_1_in\[0\] 1.318e+01
*DRIVER op_1_in\[0\]
*CELL NULL
*C2_R1_C1 6.589e+00 8.725e-05 6.589e+00 
*LOADS
*RC U551:A2 1.939e-04
*RC U555:A 1.499e-04
*RC U583:A1 3.900e-04
*RC U638:A4 1.657e-04
*RC U673:A4 2.367e-04
*RC U707:A3 9.347e-05
*RC U771:A3 5.495e-05
*RC U776:A1 1.848e-04
*RC U826:A2 1.440e-04
*RC U828:A2 1.142e-04
*RC U944:A2 3.573e-04
*END

*R_NET op_2_in\[31\] 1.051e+01
*DRIVER op_2_in\[31\]
*CELL NULL
*C2_R1_C1 5.257e+00 6.467e-05 5.257e+00 
*LOADS
*RC U779:A1 1.495e-04
*RC U852:A1 1.452e-04
*RC U863:A2 1.931e-04
*RC U1202:A 1.926e-04
*RC U1203:A1 1.411e-04
*RC U1204:A1 1.577e-04
*RC U1206:A3 1.180e-04
*RC U1207:A2 1.671e-04
*END

*R_NET op_2_in\[30\] 6.404e+00
*DRIVER op_2_in\[30\]
*CELL NULL
*C2_R1_C1 3.202e+00 5.021e-05 3.202e+00 
*LOADS
*RC U852:A3 9.569e-05
*RC U864:A1 1.010e-04
*RC U1146:A 8.128e-05
*RC U1186:A1 7.157e-05
*RC U1200:A1 6.960e-05
*END

*R_NET op_2_in\[29\] 8.078e+00
*DRIVER op_2_in\[29\]
*CELL NULL
*C2_R1_C1 4.039e+00 5.628e-05 4.039e+00 
*LOADS
*RC U855:A3 9.978e-05
*RC U858:A 7.369e-05
*RC U1158:A2 8.840e-05
*RC U1221:A1 1.085e-04
*RC U1222:A2 1.104e-04
*RC U1224:A3 8.497e-05
*RC U1225:A4 1.146e-04
*END

*R_NET op_2_in\[28\] 9.052e+00
*DRIVER op_2_in\[28\]
*CELL NULL
*C2_R1_C1 4.526e+00 6.080e-05 4.526e+00 
*LOADS
*RC U855:A1 1.380e-04
*RC U860:A1 1.287e-04
*RC U1157:A2 5.880e-05
*RC U1163:A 4.608e-05
*RC U1239:A1 1.281e-04
*RC U1240:A2 1.512e-04
*RC U1242:A3 1.124e-04
*RC U1243:A2 1.174e-04
*END

*R_NET op_2_in\[27\] 4.884e+00
*DRIVER op_2_in\[27\]
*CELL NULL
*C2_R1_C1 2.442e+00 4.148e-05 2.442e+00 
*LOADS
*RC U781:A 6.560e-05
*RC U1156:A2 5.823e-05
*RC U1258:A3 8.292e-05
*RC U1260:A1 6.758e-05
*END

*R_NET op_2_in\[26\] 6.793e+00
*DRIVER op_2_in\[26\]
*CELL NULL
*C2_R1_C1 3.396e+00 6.058e-05 3.396e+00 
*LOADS
*RC U784:A 1.300e-04
*RC U791:A3 1.565e-04
*RC U1155:A2 1.172e-04
*RC U1276:A3 1.306e-04
*RC U1278:A1 1.441e-04
*END

*R_NET op_2_in\[25\] 8.077e+00
*DRIVER op_2_in\[25\]
*CELL NULL
*C2_R1_C1 4.039e+00 8.021e-05 4.039e+00 
*LOADS
*RC U787:A 2.486e-04
*RC U791:A1 1.712e-04
*RC U1154:A2 2.175e-04
*RC U1292:A3 1.813e-04
*RC U1294:A1 2.229e-04
*END

*R_NET op_2_in\[24\] 4.908e+00
*DRIVER op_2_in\[24\]
*CELL NULL
*C2_R1_C1 2.454e+00 3.645e-05 2.454e+00 
*LOADS
*RC U786:A 6.428e-05
*RC U1153:A2 1.768e-05
*RC U1308:A3 7.333e-05
*RC U1310:A1 5.446e-05
*END

*R_NET op_2_in\[23\] 4.839e+00
*DRIVER op_2_in\[23\]
*CELL NULL
*C2_R1_C1 2.420e+00 3.486e-05 2.420e+00 
*LOADS
*RC U794:A 4.072e-05
*RC U1152:A2 1.279e-05
*RC U1325:A3 6.933e-05
*RC U1327:A1 5.529e-05
*END

*R_NET op_2_in\[22\] 5.359e+00
*DRIVER op_2_in\[22\]
*CELL NULL
*C2_R1_C1 2.679e+00 5.442e-05 2.679e+00 
*LOADS
*RC U720:A 3.841e-05
*RC U721:A1 1.058e-04
*RC U1151:A2 2.675e-05
*END

*R_NET op_2_in\[21\] 1.572e+01
*DRIVER op_2_in\[21\]
*CELL NULL
*C2_R1_C1 7.860e+00 1.661e-04 7.860e+00 
*LOADS
*RC U724:A2 9.270e-04
*RC U727:A 9.272e-04
*RC U802:A1 7.777e-04
*RC U1333:A1 4.922e-04
*RC U1334:A2 4.173e-04
*RC U1336:A3 5.367e-04
*RC U1339:A2 4.186e-04
*END

*R_NET op_2_in\[20\] 1.743e+01
*DRIVER op_2_in\[20\]
*CELL NULL
*C2_R1_C1 8.717e+00 1.914e-04 8.717e+00 
*LOADS
*RC U723:A2 1.193e-03
*RC U730:A 1.203e-03
*RC U800:A1 9.317e-04
*RC U1349:A1 6.155e-04
*RC U1350:A2 4.740e-04
*RC U1352:A3 6.634e-04
*RC U1355:A2 4.795e-04
*END

*R_NET op_2_in\[19\] 1.004e+01
*DRIVER op_2_in\[19\]
*CELL NULL
*C2_R1_C1 5.022e+00 1.060e-04 5.022e+00 
*LOADS
*RC U698:A 1.859e-04
*RC U699:A1 3.056e-04
*RC U709:A2 1.639e-04
*RC U717:A3 3.045e-04
*RC U722:A2 2.822e-04
*END

*R_NET op_2_in\[18\] 8.783e+00
*DRIVER op_2_in\[18\]
*CELL NULL
*C2_R1_C1 4.391e+00 7.634e-05 4.391e+00 
*LOADS
*RC U663:A 1.527e-04
*RC U664:A1 8.898e-05
*RC U675:A2 1.323e-04
*RC U683:A3 1.008e-04
*RC U700:A2 1.264e-04
*RC U807:A3 1.720e-04
*END

*R_NET op_2_in\[17\] 1.021e+01
*DRIVER op_2_in\[17\]
*CELL NULL
*C2_R1_C1 5.104e+00 9.759e-05 5.104e+00 
*LOADS
*RC U629:A 1.321e-04
*RC U630:A1 2.244e-04
*RC U641:A2 2.375e-04
*RC U649:A3 1.894e-04
*RC U665:A2 1.907e-04
*RC U807:A1 1.599e-04
*END

*R_NET op_2_in\[16\] 7.601e+00
*DRIVER op_2_in\[16\]
*CELL NULL
*C2_R1_C1 3.801e+00 6.991e-05 3.801e+00 
*LOADS
*RC U488:A 1.572e-04
*RC U489:A1 7.435e-05
*RC U590:A2 1.061e-04
*RC U605:A3 7.636e-05
*RC U631:A2 1.198e-04
*END

*R_NET op_2_in\[15\] 6.838e+00
*DRIVER op_2_in\[15\]
*CELL NULL
*C2_R1_C1 3.419e+00 6.431e-05 3.419e+00 
*LOADS
*RC U506:A2 6.275e-05
*RC U509:A 1.160e-04
*RC U1126:A2 1.585e-04
*RC U1127:A1 1.251e-04
*END

*R_NET op_2_in\[14\] 8.082e+00
*DRIVER op_2_in\[14\]
*CELL NULL
*C2_R1_C1 4.041e+00 7.975e-05 4.041e+00 
*LOADS
*RC U505:A2 1.574e-04
*RC U513:A 1.647e-04
*RC U1108:A1 1.892e-04
*RC U1114:A3 1.809e-04
*RC U1121:A2 1.755e-04
*END

*R_NET op_2_in\[13\] 6.238e+00
*DRIVER op_2_in\[13\]
*CELL NULL
*C2_R1_C1 3.119e+00 5.111e-05 3.119e+00 
*LOADS
*RC U504:A2 6.609e-05
*RC U516:A 7.173e-05
*RC U839:A3 1.114e-04
*RC U1097:A2 9.005e-05
*RC U1098:A1 7.132e-05
*END

*R_NET op_2_in\[12\] 6.374e+00
*DRIVER op_2_in\[12\]
*CELL NULL
*C2_R1_C1 3.187e+00 4.494e-05 3.187e+00 
*LOADS
*RC U503:A2 3.116e-05
*RC U519:A 3.370e-05
*RC U813:A1 9.737e-05
*RC U839:A1 9.507e-05
*RC U1083:A2 8.146e-05
*RC U1084:A1 6.394e-05
*END

*R_NET op_2_in\[11\] 5.586e+00
*DRIVER op_2_in\[11\]
*CELL NULL
*C2_R1_C1 2.793e+00 3.952e-05 2.793e+00 
*LOADS
*RC U502:A2 1.707e-05
*RC U522:A 5.855e-05
*RC U1063:A1 6.210e-05
*RC U1069:A3 5.786e-05
*RC U1078:A2 5.756e-05
*END

*R_NET op_2_in\[10\] 7.304e+00
*DRIVER op_2_in\[10\]
*CELL NULL
*C2_R1_C1 3.652e+00 5.637e-05 3.652e+00 
*LOADS
*RC U501:A2 4.469e-05
*RC U525:A 1.458e-04
*RC U823:A3 6.919e-05
*RC U1047:A1 1.458e-04
*RC U1052:A3 1.316e-04
*RC U1061:A2 1.121e-04
*END

*R_NET op_2_in\[9\] 5.943e+00
*DRIVER op_2_in\[9\]
*CELL NULL
*C2_R1_C1 2.972e+00 3.548e-05 2.972e+00 
*LOADS
*RC U500:A2 2.798e-05
*RC U528:A 2.488e-05
*RC U823:A1 5.936e-05
*RC U1030:A1 2.905e-05
*RC U1035:A3 6.064e-05
*RC U1045:A2 4.957e-05
*END

*R_NET op_2_in\[8\] 5.106e+00
*DRIVER op_2_in\[8\]
*CELL NULL
*C2_R1_C1 2.553e+00 3.216e-05 2.553e+00 
*LOADS
*RC U499:A2 1.239e-05
*RC U531:A 1.900e-05
*RC U1013:A1 4.331e-05
*RC U1019:A3 6.605e-05
*RC U1028:A2 5.536e-05
*END

*R_NET op_2_in\[7\] 3.887e+00
*DRIVER op_2_in\[7\]
*CELL NULL
*C2_R1_C1 1.944e+00 2.654e-05 1.944e+00 
*LOADS
*RC U492:A 1.137e-05
*RC U993:A1 2.298e-05
*RC U999:A3 3.965e-05
*RC U1011:A2 3.563e-05
*END

*R_NET op_2_in\[6\] 3.617e+00
*DRIVER op_2_in\[6\]
*CELL NULL
*C2_R1_C1 1.809e+00 3.381e-05 1.809e+00 
*LOADS
*RC U490:A 3.852e-05
*RC U981:A2 4.634e-05
*RC U982:A1 5.089e-05
*END

*R_NET op_2_in\[5\] 4.708e+00
*DRIVER op_2_in\[5\]
*CELL NULL
*C2_R1_C1 2.354e+00 3.846e-05 2.354e+00 
*LOADS
*RC U491:A 4.177e-05
*RC U957:A1 3.482e-05
*RC U963:A3 7.481e-05
*RC U975:A2 5.202e-05
*END

*R_NET op_2_in\[4\] 2.902e+01
*DRIVER op_2_in\[4\]
*CELL NULL
*C2_R1_C1 1.451e+01 9.895e-05 1.451e+01 
*LOADS
*RC U889:A1 5.141e-04
*RC U775:A1 4.426e-04
*RC U973:A1 4.041e-04
*RC U1026:A1 2.754e-04
*RC U1043:A1 3.294e-04
*RC U1009:A1 3.340e-04
*RC U604:A 3.212e-04
*RC U953:A1 2.746e-04
*RC U925:A1 3.497e-04
*RC U470:A1 2.202e-04
*RC U1059:A1 1.457e-04
*RC U1119:A1 1.230e-04
*RC U906:A1 2.288e-04
*RC U980:A1 1.885e-04
*RC U640:A 4.786e-04
*RC U1144:A1 6.310e-04
*RC U1142:A1 4.957e-04
*RC U937:A1 6.435e-04
*RC U1233:A1 4.532e-04
*RC U1215:A1 4.335e-04
*RC U1195:A1 5.130e-04
*RC U581:A1 6.452e-04
*RC U943:A1 7.736e-04
*RC U955:A1 7.432e-04
*RC U1076:A1 2.624e-04
*RC U988:A 2.778e-04
*RC U1096:A1 1.754e-04
*RC U1125:A1 8.240e-05
*RC U1082:A1 1.326e-04
*END

*R_NET op_2_in\[3\] 3.489e+01
*DRIVER op_2_in\[3\]
*CELL NULL
*C2_R1_C1 1.745e+01 1.182e-04 1.745e+01 
*LOADS
*RC U888:A1 4.853e-04
*RC U926:A1 7.075e-04
*RC U589:A 5.089e-04
*RC U972:A1 4.544e-04
*RC U774:A1 4.855e-04
*RC U1042:A1 4.593e-04
*RC U1025:A1 3.783e-04
*RC U466:A1 4.844e-04
*RC U624:A1 3.881e-04
*RC U1095:A1 3.468e-04
*RC U584:A 1.290e-03
*RC U596:A1 1.082e-03
*RC U1038:A1 9.763e-04
*RC U476:A1 9.730e-04
*RC U927:A1 8.563e-04
*RC U1008:A1 3.695e-04
*RC U1075:A1 2.752e-04
*RC U924:A1 2.425e-04
*RC U969:A1 3.435e-04
*RC U952:A1 3.738e-04
*RC U693:A1 2.634e-04
*RC U1023:A2 2.854e-04
*RC U1005:A1 1.884e-04
*RC U979:A1 3.338e-04
*RC U1081:A1 2.505e-04
*RC U1124:A1 1.773e-04
*RC U578:A 1.386e-04
*RC U949:A1 1.737e-04
*RC U905:A1 2.590e-04
*RC U1058:A1 1.847e-04
*RC U658:A1 1.049e-04
*RC U1118:A1 1.999e-04
*RC U751:A1 2.604e-05
*END

*R_NET op_2_in\[2\] 4.068e+01
*DRIVER op_2_in\[2\]
*CELL NULL
*C2_R1_C1 2.034e+01 1.159e-04 2.034e+01 
*LOADS
*RC U1020:A1 1.104e-03
*RC U964:A1 1.070e-03
*RC U1000:A1 1.084e-03
*RC U756:A1 9.906e-04
*RC U944:A6 8.856e-04
*RC U510:A 9.822e-04
*RC U596:A2 1.119e-03
*RC U1038:A2 9.813e-04
*RC U598:A1 1.078e-03
*RC U908:A1 8.655e-04
*RC U907:A1 6.257e-04
*RC U576:A 1.999e-04
*RC U920:A1 3.026e-04
*RC U978:A1 1.766e-04
*RC U465:A1 2.098e-04
*RC U623:A1 4.046e-04
*RC U950:A1 7.366e-05
*RC U970:A1 3.451e-04
*RC U1007:A1 2.272e-04
*RC U766:A1 1.861e-04
*RC U923:A1 2.738e-04
*RC U951:A1 1.382e-04
*RC U880:A1 3.861e-04
*RC U773:A1 1.087e-04
*RC U971:A1 3.584e-04
*RC U904:A1 1.920e-04
*RC U887:A1 3.589e-04
*RC U901:A1 1.532e-04
*RC U968:A1 4.430e-04
*RC U689:A2 3.522e-04
*RC U616:A1 5.393e-04
*RC U692:A1 5.061e-04
*RC U657:A1 2.251e-04
*RC U948:A1 3.066e-04
*RC U1006:A1 4.444e-04
*RC U977:A1 2.711e-04
*RC U456:A1 3.764e-04
*RC U495:A 4.232e-04
*RC U1004:A1 6.035e-04
*RC U750:A1 3.640e-04
*RC U748:A2 3.803e-04
*RC U654:A1 4.469e-04
*END

*R_NET op_2_in\[1\] 7.897e+01
*DRIVER op_2_in\[1\]
*CELL NULL
*C2_R1_C1 3.949e+01 1.419e-04 3.949e+01 
*LOADS
*RC U890:A1 2.166e-03
*RC U474:S0 2.610e-03
*RC U645:S0 2.468e-03
*RC U922:A1 1.760e-03
*RC U672:A1 1.929e-03
*RC U713:S0 2.763e-03
*RC U475:A 2.186e-03
*RC U679:S0 2.533e-03
*RC U550:A1 2.105e-03
*RC U673:A1 2.485e-03
*RC U886:A1 1.800e-03
*RC U686:A1 1.663e-03
*RC U772:A1 1.711e-03
*RC U903:A1 1.608e-03
*RC U653:A1 1.924e-03
*RC U461:A 2.032e-03
*RC U688:A1 2.222e-03
*RC U451:A1 1.981e-03
*RC U615:A1 2.364e-03
*RC U609:A2 2.140e-03
*RC U652:A2 2.150e-03
*RC U1230:S0 7.320e-04
*RC U696:S0 4.544e-04
*RC U661:S0 4.329e-04
*RC U691:A1 9.338e-04
*RC U622:A1 8.675e-04
*RC U918:A1 7.789e-04
*RC U656:A1 5.773e-04
*RC U482:A 8.111e-04
*RC U464:A1 5.834e-04
*RC U619:A1 1.122e-03
*RC U460:A1 7.647e-04
*RC U899:A1 6.811e-04
*RC U876:A1 1.031e-03
*RC U919:A1 1.046e-03
*RC U655:A1 9.543e-04
*RC U879:A1 1.256e-03
*RC U891:A1 1.699e-03
*RC U690:A1 1.362e-03
*RC U765:A1 1.177e-03
*RC U762:A1 8.533e-04
*RC U468:A 1.231e-03
*RC U900:A1 1.046e-03
*RC U921:A1 1.385e-03
*RC U902:A1 1.282e-03
*RC U455:A1 1.145e-03
*RC U707:S0 1.511e-03
*RC U883:A1 1.646e-03
*RC U769:A1 1.292e-03
*RC U1229:S0 1.584e-03
*RC U1212:S0 9.334e-04
*RC U744:S0 1.175e-03
*RC U1192:S0 1.768e-03
*RC U1211:S0 1.371e-03
*RC U627:S0 7.586e-04
*RC U1138:S0 1.089e-03
*RC U1191:S0 1.400e-03
*RC U695:S0 1.307e-03
*RC U714:S0 1.632e-03
*RC U481:S0 1.958e-03
*RC U646:S0 1.538e-03
*RC U680:S0 1.903e-03
*RC U597:S0 2.280e-03
*RC U626:S0 2.178e-03
*RC U660:S0 1.883e-03
*END

*R_NET op_2_in\[0\] 1.170e+02
*DRIVER op_2_in\[0\]
*CELL NULL
*C2_R1_C1 5.850e+01 1.302e-04 5.850e+01 
*LOADS
*RC U453:A2 1.750e-03
*RC U768:A2 1.913e-03
*RC U885:A2 2.107e-03
*RC U884:A2 2.599e-03
*RC U771:A2 2.469e-03
*RC U770:A2 2.291e-03
*RC U610:A1 2.586e-03
*RC U443:A 2.825e-03
*RC U672:A2 3.070e-03
*RC U447:A2 2.500e-03
*RC U552:A1 3.492e-03
*RC U594:A1 3.528e-03
*RC U613:A2 3.219e-03
*RC U450:A2 3.727e-03
*RC U611:A2 3.512e-03
*RC U764:A2 2.435e-03
*RC U881:A2 2.546e-03
*RC U767:A2 2.671e-03
*RC U882:A2 2.657e-03
*RC U452:A 2.913e-03
*RC U474:S1 4.048e-03
*RC U645:S1 3.833e-03
*RC U776:A2 3.290e-03
*RC U638:A1 3.331e-03
*RC U713:S1 4.279e-03
*RC U551:A1 3.625e-03
*RC U679:S1 3.931e-03
*RC U1229:S1 2.124e-03
*RC U744:S1 1.507e-03
*RC U1192:S1 2.472e-03
*RC U1211:S1 2.090e-03
*RC U1138:S1 1.752e-03
*RC U458:A2 1.581e-03
*RC U1191:S1 2.222e-03
*RC U617:A2 1.821e-03
*RC U695:S1 2.081e-03
*RC U454:A2 1.655e-03
*RC U714:S1 2.571e-03
*RC U481:S1 3.063e-03
*RC U763:A2 1.881e-03
*RC U448:A 1.933e-03
*RC U646:S1 2.429e-03
*RC U877:A2 2.016e-03
*RC U680:S1 2.980e-03
*RC U597:S1 3.550e-03
*RC U878:A2 2.341e-03
*RC U614:A2 2.211e-03
*RC U626:S1 3.395e-03
*RC U660:S1 2.950e-03
*RC U1230:S1 8.380e-04
*RC U696:S1 4.198e-04
*RC U1212:S1 1.142e-03
*RC U661:S1 7.326e-04
*RC U627:S1 1.253e-03
*RC U462:A2 4.126e-04
*RC U621:A2 7.087e-04
*RC U620:A2 1.062e-03
*RC U463:A2 5.924e-04
*RC U618:A2 1.391e-03
*RC U459:A2 9.208e-04
*RC U445:A 9.919e-04
*RC U874:A2 1.168e-03
*RC U875:A2 1.263e-03
*RC U760:A2 8.412e-04
*RC U761:A2 1.513e-03
*END

*R_NET opcode_in\[3\] 5.560e+01
*DRIVER opcode_in\[3\]
*CELL NULL
*C2_R1_C1 2.780e+01 2.950e-04 2.780e+01 
*LOADS
*RC U1172:A1 2.214e-03
*RC U701:A1 7.239e-04
*RC U731:A1 1.041e-03
*RC U1174:A1 1.754e-03
*RC U725:A1 1.555e-03
*RC U666:A1 7.184e-04
*RC U1170:A1 2.424e-03
*RC U632:A1 7.030e-04
*RC U728:A1 1.250e-03
*RC U1168:A1 2.299e-03
*RC U507:A1 8.073e-04
*RC U526:A1 2.433e-03
*RC U523:A1 2.684e-03
*RC U511:A1 1.365e-03
*RC U529:A1 2.847e-03
*RC U1166:A1 2.643e-03
*RC U532:A1 3.143e-03
*RC U514:A1 2.794e-03
*RC U520:A1 3.418e-03
*RC U517:A1 3.373e-03
*RC U553:A1 1.660e-03