*SPEF "IEEE 1481-1999"
*DESIGN "msrv32_top"
*DATE "Wed Apr 23 20:17:25 2025"
*VENDOR "SYNOPSYS INC"
*PROGRAM "Synopsys Design Compiler (R) NXT cmos"
*VERSION "T-2022.03-SP4"
*DESIGN_FLOW "SYNTHESIS"
*DIVIDER /
*DELIMITER :
*BUS_DELIMITER []
*T_UNIT 1.0 NS
*C_UNIT 0.0010 PF
*R_UNIT 1000.0 KOHM
*L_UNIT 1.0 HENRY

*PORTS

ms_riscv32_mp_clk_in I *L 0.000e+00 *S 0.000e+00 0.000e+00 
ms_riscv32_mp_rst_in I *L 0.000e+00 *S 0.000e+00 0.000e+00 
ms_riscv32_mp_rc_in\[63\] I *L 0.000e+00 *S 0.000e+00 0.000e+00 
ms_riscv32_mp_rc_in\[62\] I *L 0.000e+00 *S 0.000e+00 0.000e+00 
ms_riscv32_mp_rc_in\[61\] I *L 0.000e+00 *S 0.000e+00 0.000e+00 
ms_riscv32_mp_rc_in\[60\] I *L 0.000e+00 *S 0.000e+00 0.000e+00 
ms_riscv32_mp_rc_in\[59\] I *L 0.000e+00 *S 0.000e+00 0.000e+00 
ms_riscv32_mp_rc_in\[58\] I *L 0.000e+00 *S 0.000e+00 0.000e+00 
ms_riscv32_mp_rc_in\[57\] I *L 0.000e+00 *S 0.000e+00 0.000e+00 
ms_riscv32_mp_rc_in\[56\] I *L 0.000e+00 *S 0.000e+00 0.000e+00 
ms_riscv32_mp_rc_in\[55\] I *L 0.000e+00 *S 0.000e+00 0.000e+00 
ms_riscv32_mp_rc_in\[54\] I *L 0.000e+00 *S 0.000e+00 0.000e+00 
ms_riscv32_mp_rc_in\[53\] I *L 0.000e+00 *S 0.000e+00 0.000e+00 
ms_riscv32_mp_rc_in\[52\] I *L 0.000e+00 *S 0.000e+00 0.000e+00 
ms_riscv32_mp_rc_in\[51\] I *L 0.000e+00 *S 0.000e+00 0.000e+00 
ms_riscv32_mp_rc_in\[50\] I *L 0.000e+00 *S 0.000e+00 0.000e+00 
ms_riscv32_mp_rc_in\[49\] I *L 0.000e+00 *S 0.000e+00 0.000e+00 
ms_riscv32_mp_rc_in\[48\] I *L 0.000e+00 *S 0.000e+00 0.000e+00 
ms_riscv32_mp_rc_in\[47\] I *L 0.000e+00 *S 0.000e+00 0.000e+00 
ms_riscv32_mp_rc_in\[46\] I *L 0.000e+00 *S 0.000e+00 0.000e+00 
ms_riscv32_mp_rc_in\[45\] I *L 0.000e+00 *S 0.000e+00 0.000e+00 
ms_riscv32_mp_rc_in\[44\] I *L 0.000e+00 *S 0.000e+00 0.000e+00 
ms_riscv32_mp_rc_in\[43\] I *L 0.000e+00 *S 0.000e+00 0.000e+00 
ms_riscv32_mp_rc_in\[42\] I *L 0.000e+00 *S 0.000e+00 0.000e+00 
ms_riscv32_mp_rc_in\[41\] I *L 0.000e+00 *S 0.000e+00 0.000e+00 
ms_riscv32_mp_rc_in\[40\] I *L 0.000e+00 *S 0.000e+00 0.000e+00 
ms_riscv32_mp_rc_in\[39\] I *L 0.000e+00 *S 0.000e+00 0.000e+00 
ms_riscv32_mp_rc_in\[38\] I *L 0.000e+00 *S 0.000e+00 0.000e+00 
ms_riscv32_mp_rc_in\[37\] I *L 0.000e+00 *S 0.000e+00 0.000e+00 
ms_riscv32_mp_rc_in\[36\] I *L 0.000e+00 *S 0.000e+00 0.000e+00 
ms_riscv32_mp_rc_in\[35\] I *L 0.000e+00 *S 0.000e+00 0.000e+00 
ms_riscv32_mp_rc_in\[34\] I *L 0.000e+00 *S 0.000e+00 0.000e+00 
ms_riscv32_mp_rc_in\[33\] I *L 0.000e+00 *S 0.000e+00 0.000e+00 
ms_riscv32_mp_rc_in\[32\] I *L 0.000e+00 *S 0.000e+00 0.000e+00 
ms_riscv32_mp_rc_in\[31\] I *L 0.000e+00 *S 0.000e+00 0.000e+00 
ms_riscv32_mp_rc_in\[30\] I *L 0.000e+00 *S 0.000e+00 0.000e+00 
ms_riscv32_mp_rc_in\[29\] I *L 0.000e+00 *S 0.000e+00 0.000e+00 
ms_riscv32_mp_rc_in\[28\] I *L 0.000e+00 *S 0.000e+00 0.000e+00 
ms_riscv32_mp_rc_in\[27\] I *L 0.000e+00 *S 0.000e+00 0.000e+00 
ms_riscv32_mp_rc_in\[26\] I *L 0.000e+00 *S 0.000e+00 0.000e+00 
ms_riscv32_mp_rc_in\[25\] I *L 0.000e+00 *S 0.000e+00 0.000e+00 
ms_riscv32_mp_rc_in\[24\] I *L 0.000e+00 *S 0.000e+00 0.000e+00 
ms_riscv32_mp_rc_in\[23\] I *L 0.000e+00 *S 0.000e+00 0.000e+00 
ms_riscv32_mp_rc_in\[22\] I *L 0.000e+00 *S 0.000e+00 0.000e+00 
ms_riscv32_mp_rc_in\[21\] I *L 0.000e+00 *S 0.000e+00 0.000e+00 
ms_riscv32_mp_rc_in\[20\] I *L 0.000e+00 *S 0.000e+00 0.000e+00 
ms_riscv32_mp_rc_in\[19\] I *L 0.000e+00 *S 0.000e+00 0.000e+00 
ms_riscv32_mp_rc_in\[18\] I *L 0.000e+00 *S 0.000e+00 0.000e+00 
ms_riscv32_mp_rc_in\[17\] I *L 0.000e+00 *S 0.000e+00 0.000e+00 
ms_riscv32_mp_rc_in\[16\] I *L 0.000e+00 *S 0.000e+00 0.000e+00 
ms_riscv32_mp_rc_in\[15\] I *L 0.000e+00 *S 0.000e+00 0.000e+00 
ms_riscv32_mp_rc_in\[14\] I *L 0.000e+00 *S 0.000e+00 0.000e+00 
ms_riscv32_mp_rc_in\[13\] I *L 0.000e+00 *S 0.000e+00 0.000e+00 
ms_riscv32_mp_rc_in\[12\] I *L 0.000e+00 *S 0.000e+00 0.000e+00 
ms_riscv32_mp_rc_in\[11\] I *L 0.000e+00 *S 0.000e+00 0.000e+00 
ms_riscv32_mp_rc_in\[10\] I *L 0.000e+00 *S 0.000e+00 0.000e+00 
ms_riscv32_mp_rc_in\[9\] I *L 0.000e+00 *S 0.000e+00 0.000e+00 
ms_riscv32_mp_rc_in\[8\] I *L 0.000e+00 *S 0.000e+00 0.000e+00 
ms_riscv32_mp_rc_in\[7\] I *L 0.000e+00 *S 0.000e+00 0.000e+00 
ms_riscv32_mp_rc_in\[6\] I *L 0.000e+00 *S 0.000e+00 0.000e+00 
ms_riscv32_mp_rc_in\[5\] I *L 0.000e+00 *S 0.000e+00 0.000e+00 
ms_riscv32_mp_rc_in\[4\] I *L 0.000e+00 *S 0.000e+00 0.000e+00 
ms_riscv32_mp_rc_in\[3\] I *L 0.000e+00 *S 0.000e+00 0.000e+00 
ms_riscv32_mp_rc_in\[2\] I *L 0.000e+00 *S 0.000e+00 0.000e+00 
ms_riscv32_mp_rc_in\[1\] I *L 0.000e+00 *S 0.000e+00 0.000e+00 
ms_riscv32_mp_rc_in\[0\] I *L 0.000e+00 *S 0.000e+00 0.000e+00 
ms_riscv32_mp_imaddr_out\[31\] O *L 0.000e+00 *S 3.408e-03 3.874e-03 
ms_riscv32_mp_imaddr_out\[30\] O *L 0.000e+00 *S 3.335e-03 3.791e-03 
ms_riscv32_mp_imaddr_out\[29\] O *L 0.000e+00 *S 3.223e-03 3.665e-03 
ms_riscv32_mp_imaddr_out\[28\] O *L 0.000e+00 *S 1.401e-03 1.595e-03 
ms_riscv32_mp_imaddr_out\[27\] O *L 0.000e+00 *S 4.731e-03 5.371e-03 
ms_riscv32_mp_imaddr_out\[26\] O *L 0.000e+00 *S 1.555e-03 1.770e-03 
ms_riscv32_mp_imaddr_out\[25\] O *L 0.000e+00 *S 2.496e-03 2.841e-03 
ms_riscv32_mp_imaddr_out\[24\] O *L 0.000e+00 *S 1.274e-03 1.450e-03 
ms_riscv32_mp_imaddr_out\[23\] O *L 0.000e+00 *S 2.902e-03 3.301e-03 
ms_riscv32_mp_imaddr_out\[22\] O *L 0.000e+00 *S 2.981e-03 3.390e-03 
ms_riscv32_mp_imaddr_out\[21\] O *L 0.000e+00 *S 1.168e-03 1.330e-03 
ms_riscv32_mp_imaddr_out\[20\] O *L 0.000e+00 *S 3.513e-03 3.993e-03 
ms_riscv32_mp_imaddr_out\[19\] O *L 0.000e+00 *S 2.001e-03 2.278e-03 
ms_riscv32_mp_imaddr_out\[18\] O *L 0.000e+00 *S 2.261e-03 2.574e-03 
ms_riscv32_mp_imaddr_out\[17\] O *L 0.000e+00 *S 4.733e-03 5.373e-03 
ms_riscv32_mp_imaddr_out\[16\] O *L 0.000e+00 *S 2.990e-03 3.400e-03 
ms_riscv32_mp_imaddr_out\[15\] O *L 0.000e+00 *S 3.756e-03 4.268e-03 
ms_riscv32_mp_imaddr_out\[14\] O *L 0.000e+00 *S 3.524e-03 4.005e-03 
ms_riscv32_mp_imaddr_out\[13\] O *L 0.000e+00 *S 6.293e-03 7.109e-03 
ms_riscv32_mp_imaddr_out\[12\] O *L 0.000e+00 *S 3.643e-03 4.140e-03 
ms_riscv32_mp_imaddr_out\[11\] O *L 0.000e+00 *S 1.442e-03 1.642e-03 
ms_riscv32_mp_imaddr_out\[10\] O *L 0.000e+00 *S 5.567e-03 6.301e-03 
ms_riscv32_mp_imaddr_out\[9\] O *L 0.000e+00 *S 3.351e-03 3.809e-03 
ms_riscv32_mp_imaddr_out\[8\] O *L 0.000e+00 *S 4.785e-03 5.431e-03 
ms_riscv32_mp_imaddr_out\[7\] O *L 0.000e+00 *S 3.772e-03 4.287e-03 
ms_riscv32_mp_imaddr_out\[6\] O *L 0.000e+00 *S 6.648e-03 7.503e-03 
ms_riscv32_mp_imaddr_out\[5\] O *L 0.000e+00 *S 7.784e-03 8.767e-03 
ms_riscv32_mp_imaddr_out\[4\] O *L 0.000e+00 *S 2.394e-03 2.726e-03 
ms_riscv32_mp_imaddr_out\[3\] O *L 0.000e+00 *S 1.899e-03 2.162e-03 
ms_riscv32_mp_imaddr_out\[2\] O *L 0.000e+00 *S 7.418e-03 8.360e-03 
ms_riscv32_mp_imaddr_out\[1\] O *L 0.000e+00 *S 7.513e-04 8.553e-04 
ms_riscv32_mp_imaddr_out\[0\] O *L 0.000e+00 *S 0.000e+00 0.000e+00 
ms_riscv32_mp_instr_in\[31\] I *L 0.000e+00 *S 0.000e+00 0.000e+00 
ms_riscv32_mp_instr_in\[30\] I *L 0.000e+00 *S 0.000e+00 0.000e+00 
ms_riscv32_mp_instr_in\[29\] I *L 0.000e+00 *S 0.000e+00 0.000e+00 
ms_riscv32_mp_instr_in\[28\] I *L 0.000e+00 *S 0.000e+00 0.000e+00 
ms_riscv32_mp_instr_in\[27\] I *L 0.000e+00 *S 0.000e+00 0.000e+00 
ms_riscv32_mp_instr_in\[26\] I *L 0.000e+00 *S 0.000e+00 0.000e+00 
ms_riscv32_mp_instr_in\[25\] I *L 0.000e+00 *S 0.000e+00 0.000e+00 
ms_riscv32_mp_instr_in\[24\] I *L 0.000e+00 *S 0.000e+00 0.000e+00 
ms_riscv32_mp_instr_in\[23\] I *L 0.000e+00 *S 0.000e+00 0.000e+00 
ms_riscv32_mp_instr_in\[22\] I *L 0.000e+00 *S 0.000e+00 0.000e+00 
ms_riscv32_mp_instr_in\[21\] I *L 0.000e+00 *S 0.000e+00 0.000e+00 
ms_riscv32_mp_instr_in\[20\] I *L 0.000e+00 *S 0.000e+00 0.000e+00 
ms_riscv32_mp_instr_in\[19\] I *L 0.000e+00 *S 0.000e+00 0.000e+00 
ms_riscv32_mp_instr_in\[18\] I *L 0.000e+00 *S 0.000e+00 0.000e+00 
ms_riscv32_mp_instr_in\[17\] I *L 0.000e+00 *S 0.000e+00 0.000e+00 
ms_riscv32_mp_instr_in\[16\] I *L 0.000e+00 *S 0.000e+00 0.000e+00 
ms_riscv32_mp_instr_in\[15\] I *L 0.000e+00 *S 0.000e+00 0.000e+00 
ms_riscv32_mp_instr_in\[14\] I *L 0.000e+00 *S 0.000e+00 0.000e+00 
ms_riscv32_mp_instr_in\[13\] I *L 0.000e+00 *S 0.000e+00 0.000e+00 
ms_riscv32_mp_instr_in\[12\] I *L 0.000e+00 *S 0.000e+00 0.000e+00 
ms_riscv32_mp_instr_in\[11\] I *L 0.000e+00 *S 0.000e+00 0.000e+00 
ms_riscv32_mp_instr_in\[10\] I *L 0.000e+00 *S 0.000e+00 0.000e+00 
ms_riscv32_mp_instr_in\[9\] I *L 0.000e+00 *S 0.000e+00 0.000e+00 
ms_riscv32_mp_instr_in\[8\] I *L 0.000e+00 *S 0.000e+00 0.000e+00 
ms_riscv32_mp_instr_in\[7\] I *L 0.000e+00 *S 0.000e+00 0.000e+00 
ms_riscv32_mp_instr_in\[6\] I *L 0.000e+00 *S 0.000e+00 0.000e+00 
ms_riscv32_mp_instr_in\[5\] I *L 0.000e+00 *S 0.000e+00 0.000e+00 
ms_riscv32_mp_instr_in\[4\] I *L 0.000e+00 *S 0.000e+00 0.000e+00 
ms_riscv32_mp_instr_in\[3\] I *L 0.000e+00 *S 0.000e+00 0.000e+00 
ms_riscv32_mp_instr_in\[2\] I *L 0.000e+00 *S 0.000e+00 0.000e+00 
ms_riscv32_mp_instr_in\[1\] I *L 0.000e+00 *S 0.000e+00 0.000e+00 
ms_riscv32_mp_instr_in\[0\] I *L 0.000e+00 *S 0.000e+00 0.000e+00 
ms_riscv32_mp_instr_hready_in I *L 0.000e+00 *S 0.000e+00 0.000e+00 
ms_riscv32_mp_dmaddr_out\[31\] O *L 0.000e+00 *S 2.873e-02 3.009e-02 
ms_riscv32_mp_dmaddr_out\[30\] O *L 0.000e+00 *S 2.647e-02 2.877e-02 
ms_riscv32_mp_dmaddr_out\[29\] O *L 0.000e+00 *S 2.658e-02 2.889e-02 
ms_riscv32_mp_dmaddr_out\[28\] O *L 0.000e+00 *S 2.764e-02 3.000e-02 
ms_riscv32_mp_dmaddr_out\[27\] O *L 0.000e+00 *S 2.799e-02 3.036e-02 
ms_riscv32_mp_dmaddr_out\[26\] O *L 0.000e+00 *S 2.838e-02 3.076e-02 
ms_riscv32_mp_dmaddr_out\[25\] O *L 0.000e+00 *S 3.063e-02 3.305e-02 
ms_riscv32_mp_dmaddr_out\[24\] O *L 0.000e+00 *S 3.430e-02 3.678e-02 
ms_riscv32_mp_dmaddr_out\[23\] O *L 0.000e+00 *S 3.487e-02 3.737e-02 
ms_riscv32_mp_dmaddr_out\[22\] O *L 0.000e+00 *S 3.634e-02 3.886e-02 
ms_riscv32_mp_dmaddr_out\[21\] O *L 0.000e+00 *S 3.933e-02 4.191e-02 
ms_riscv32_mp_dmaddr_out\[20\] O *L 0.000e+00 *S 3.970e-02 4.229e-02 
ms_riscv32_mp_dmaddr_out\[19\] O *L 0.000e+00 *S 4.057e-02 4.317e-02 
ms_riscv32_mp_dmaddr_out\[18\] O *L 0.000e+00 *S 4.271e-02 4.535e-02 
ms_riscv32_mp_dmaddr_out\[17\] O *L 0.000e+00 *S 4.168e-02 4.430e-02 
ms_riscv32_mp_dmaddr_out\[16\] O *L 0.000e+00 *S 4.071e-02 4.332e-02 
ms_riscv32_mp_dmaddr_out\[15\] O *L 0.000e+00 *S 3.919e-02 4.177e-02 
ms_riscv32_mp_dmaddr_out\[14\] O *L 0.000e+00 *S 3.845e-02 4.101e-02 
ms_riscv32_mp_dmaddr_out\[13\] O *L 0.000e+00 *S 3.679e-02 3.933e-02 
ms_riscv32_mp_dmaddr_out\[12\] O *L 0.000e+00 *S 3.634e-02 3.887e-02 
ms_riscv32_mp_dmaddr_out\[11\] O *L 0.000e+00 *S 3.469e-02 3.718e-02 
ms_riscv32_mp_dmaddr_out\[10\] O *L 0.000e+00 *S 3.335e-02 3.582e-02 
ms_riscv32_mp_dmaddr_out\[9\] O *L 0.000e+00 *S 3.246e-02 3.491e-02 
ms_riscv32_mp_dmaddr_out\[8\] O *L 0.000e+00 *S 3.177e-02 3.421e-02 
ms_riscv32_mp_dmaddr_out\[7\] O *L 0.000e+00 *S 3.195e-02 3.439e-02 
ms_riscv32_mp_dmaddr_out\[6\] O *L 0.000e+00 *S 3.189e-02 3.433e-02 
ms_riscv32_mp_dmaddr_out\[5\] O *L 0.000e+00 *S 3.207e-02 3.452e-02 
ms_riscv32_mp_dmaddr_out\[4\] O *L 0.000e+00 *S 3.348e-02 3.595e-02 
ms_riscv32_mp_dmaddr_out\[3\] O *L 0.000e+00 *S 3.412e-02 3.660e-02 
ms_riscv32_mp_dmaddr_out\[2\] O *L 0.000e+00 *S 3.551e-02 3.802e-02 
ms_riscv32_mp_dmaddr_out\[1\] O *L 0.000e+00 *S 0.000e+00 0.000e+00 
ms_riscv32_mp_dmaddr_out\[0\] O *L 0.000e+00 *S 0.000e+00 0.000e+00 
ms_riscv32_mp_dmdata_out\[31\] O *L 0.000e+00 *S 7.132e-03 8.042e-03 
ms_riscv32_mp_dmdata_out\[30\] O *L 0.000e+00 *S 5.670e-03 6.416e-03 
ms_riscv32_mp_dmdata_out\[29\] O *L 0.000e+00 *S 5.112e-03 5.795e-03 
ms_riscv32_mp_dmdata_out\[28\] O *L 0.000e+00 *S 4.580e-03 5.201e-03 
ms_riscv32_mp_dmdata_out\[27\] O *L 0.000e+00 *S 5.434e-03 6.153e-03 
ms_riscv32_mp_dmdata_out\[26\] O *L 0.000e+00 *S 5.342e-03 6.051e-03 
ms_riscv32_mp_dmdata_out\[25\] O *L 0.000e+00 *S 4.929e-03 5.591e-03 
ms_riscv32_mp_dmdata_out\[24\] O *L 0.000e+00 *S 2.128e-03 2.423e-03 
ms_riscv32_mp_dmdata_out\[23\] O *L 0.000e+00 *S 3.917e-03 4.451e-03 
ms_riscv32_mp_dmdata_out\[22\] O *L 0.000e+00 *S 1.868e-03 2.126e-03 
ms_riscv32_mp_dmdata_out\[21\] O *L 0.000e+00 *S 2.876e-03 3.271e-03 
ms_riscv32_mp_dmdata_out\[20\] O *L 0.000e+00 *S 4.021e-03 4.568e-03 
ms_riscv32_mp_dmdata_out\[19\] O *L 0.000e+00 *S 2.361e-03 2.688e-03 
ms_riscv32_mp_dmdata_out\[18\] O *L 0.000e+00 *S 3.067e-03 3.487e-03 
ms_riscv32_mp_dmdata_out\[17\] O *L 0.000e+00 *S 6.546e-03 7.390e-03 
ms_riscv32_mp_dmdata_out\[16\] O *L 0.000e+00 *S 6.029e-03 6.815e-03 
ms_riscv32_mp_dmdata_out\[15\] O *L 0.000e+00 *S 6.946e-03 7.835e-03 
ms_riscv32_mp_dmdata_out\[14\] O *L 0.000e+00 *S 7.550e-03 8.507e-03 
ms_riscv32_mp_dmdata_out\[13\] O *L 0.000e+00 *S 9.440e-03 1.061e-02 
ms_riscv32_mp_dmdata_out\[12\] O *L 0.000e+00 *S 9.309e-03 1.046e-02 
ms_riscv32_mp_dmdata_out\[11\] O *L 0.000e+00 *S 1.062e-02 1.191e-02 
ms_riscv32_mp_dmdata_out\[10\] O *L 0.000e+00 *S 9.512e-03 1.069e-02 
ms_riscv32_mp_dmdata_out\[9\] O *L 0.000e+00 *S 8.019e-03 9.028e-03 
ms_riscv32_mp_dmdata_out\[8\] O *L 0.000e+00 *S 7.694e-03 8.667e-03 
ms_riscv32_mp_dmdata_out\[7\] O *L 0.000e+00 *S 1.024e-02 1.149e-02 
ms_riscv32_mp_dmdata_out\[6\] O *L 0.000e+00 *S 1.011e-02 1.134e-02 
ms_riscv32_mp_dmdata_out\[5\] O *L 0.000e+00 *S 1.044e-02 1.171e-02 
ms_riscv32_mp_dmdata_out\[4\] O *L 0.000e+00 *S 1.046e-02 1.174e-02 
ms_riscv32_mp_dmdata_out\[3\] O *L 0.000e+00 *S 8.889e-03 9.996e-03 
ms_riscv32_mp_dmdata_out\[2\] O *L 0.000e+00 *S 8.966e-03 1.008e-02 
ms_riscv32_mp_dmdata_out\[1\] O *L 0.000e+00 *S 9.612e-03 1.080e-02 
ms_riscv32_mp_dmdata_out\[0\] O *L 0.000e+00 *S 1.027e-02 1.153e-02 
ms_riscv32_mp_dmwr_req_out O *L 0.000e+00 *S 1.449e-02 1.674e-02 
ms_riscv32_mp_dmwr_mask_out\[3\] O *L 0.000e+00 *S 1.144e-02 1.285e-02 
ms_riscv32_mp_dmwr_mask_out\[2\] O *L 0.000e+00 *S 1.165e-02 1.340e-02 
ms_riscv32_mp_dmwr_mask_out\[1\] O *L 0.000e+00 *S 1.063e-02 1.195e-02 
ms_riscv32_mp_dmwr_mask_out\[0\] O *L 0.000e+00 *S 4.409e-03 5.262e-03 
ms_riscv32_mp_data_in\[31\] I *L 0.000e+00 *S 0.000e+00 0.000e+00 
ms_riscv32_mp_data_in\[30\] I *L 0.000e+00 *S 0.000e+00 0.000e+00 
ms_riscv32_mp_data_in\[29\] I *L 0.000e+00 *S 0.000e+00 0.000e+00 
ms_riscv32_mp_data_in\[28\] I *L 0.000e+00 *S 0.000e+00 0.000e+00 
ms_riscv32_mp_data_in\[27\] I *L 0.000e+00 *S 0.000e+00 0.000e+00 
ms_riscv32_mp_data_in\[26\] I *L 0.000e+00 *S 0.000e+00 0.000e+00 
ms_riscv32_mp_data_in\[25\] I *L 0.000e+00 *S 0.000e+00 0.000e+00 
ms_riscv32_mp_data_in\[24\] I *L 0.000e+00 *S 0.000e+00 0.000e+00 
ms_riscv32_mp_data_in\[23\] I *L 0.000e+00 *S 0.000e+00 0.000e+00 
ms_riscv32_mp_data_in\[22\] I *L 0.000e+00 *S 0.000e+00 0.000e+00 
ms_riscv32_mp_data_in\[21\] I *L 0.000e+00 *S 0.000e+00 0.000e+00 
ms_riscv32_mp_data_in\[20\] I *L 0.000e+00 *S 0.000e+00 0.000e+00 
ms_riscv32_mp_data_in\[19\] I *L 0.000e+00 *S 0.000e+00 0.000e+00 
ms_riscv32_mp_data_in\[18\] I *L 0.000e+00 *S 0.000e+00 0.000e+00 
ms_riscv32_mp_data_in\[17\] I *L 0.000e+00 *S 0.000e+00 0.000e+00 
ms_riscv32_mp_data_in\[16\] I *L 0.000e+00 *S 0.000e+00 0.000e+00 
ms_riscv32_mp_data_in\[15\] I *L 0.000e+00 *S 0.000e+00 0.000e+00 
ms_riscv32_mp_data_in\[14\] I *L 0.000e+00 *S 0.000e+00 0.000e+00 
ms_riscv32_mp_data_in\[13\] I *L 0.000e+00 *S 0.000e+00 0.000e+00 
ms_riscv32_mp_data_in\[12\] I *L 0.000e+00 *S 0.000e+00 0.000e+00 
ms_riscv32_mp_data_in\[11\] I *L 0.000e+00 *S 0.000e+00 0.000e+00 
ms_riscv32_mp_data_in\[10\] I *L 0.000e+00 *S 0.000e+00 0.000e+00 
ms_riscv32_mp_data_in\[9\] I *L 0.000e+00 *S 0.000e+00 0.000e+00 
ms_riscv32_mp_data_in\[8\] I *L 0.000e+00 *S 0.000e+00 0.000e+00 
ms_riscv32_mp_data_in\[7\] I *L 0.000e+00 *S 0.000e+00 0.000e+00 
ms_riscv32_mp_data_in\[6\] I *L 0.000e+00 *S 0.000e+00 0.000e+00 
ms_riscv32_mp_data_in\[5\] I *L 0.000e+00 *S 0.000e+00 0.000e+00 
ms_riscv32_mp_data_in\[4\] I *L 0.000e+00 *S 0.000e+00 0.000e+00 
ms_riscv32_mp_data_in\[3\] I *L 0.000e+00 *S 0.000e+00 0.000e+00 
ms_riscv32_mp_data_in\[2\] I *L 0.000e+00 *S 0.000e+00 0.000e+00 
ms_riscv32_mp_data_in\[1\] I *L 0.000e+00 *S 0.000e+00 0.000e+00 
ms_riscv32_mp_data_in\[0\] I *L 0.000e+00 *S 0.000e+00 0.000e+00 
ms_riscv32_mp_data_hready_in I *L 0.000e+00 *S 0.000e+00 0.000e+00 
ms_riscv32_mp_hresp_in I *L 0.000e+00 *S 0.000e+00 0.000e+00 
ms_riscv32_mp_data_htrans_out\[1\] O *L 0.000e+00 *S 0.000e+00 0.000e+00 
ms_riscv32_mp_data_htrans_out\[0\] O *L 0.000e+00 *S 0.000e+00 0.000e+00 
ms_riscv32_mp_eirq_in I *L 0.000e+00 *S 0.000e+00 0.000e+00 
ms_riscv32_mp_tirq_in I *L 0.000e+00 *S 0.000e+00 0.000e+00 
ms_riscv32_mp_sirq_in I *L 0.000e+00 *S 0.000e+00 0.000e+00 

*R_NET ms_riscv32_mp_rst_in 4.992e+01
*DRIVER ms_riscv32_mp_rst_in
*CELL NULL
*C2_R1_C1 2.496e+01 1.664e-04 2.496e+01 
*LOADS
*RC CSRF/MCAUSE_REG/U7:A1 9.225e-04
*RC CSRF/MCAUSE_REG/U12:A1 7.367e-04
*RC CSRF/MCAUSE_REG/U5:A 7.750e-04
*RC CSRF/MCS/U8:A 1.582e-03
*RC CSRF/MCS/U4:A1 1.451e-03
*RC CSRF/MC/U18:A 3.030e-04
*RC CSRF/MC/U3:A 3.196e-04
*RC CSRF/MC/U9:A 5.500e-04
*RC CSRF/MC/U17:A 5.689e-04
*RC CSRF/MIE_REG/U4:A1 1.447e-03
*RC CSRF/MIE_REG/U8:A1 1.167e-03
*RC CSRF/MTVEC_REG/U96:A1 9.835e-04
*RC CSRF/MTVEC_REG/U90:A1 1.467e-03
*RC CSRF/MS/U17:A1 1.021e-03
*RC CSRF/MS/U11:A 1.015e-03
*RC CSRF/MM_REG/U9:A 6.181e-04
*RC CSRF/MM_REG/U4:A1 1.386e-03
*RC CSRF/MTVAL_REG/U12:A1 5.755e-04
*RC CSRF/MTVAL_REG/U7:A1 9.549e-04
*RC CSRF/MTVAL_REG/U5:A 8.132e-04
*RC MC/U12:A 8.620e-04
*RC MC/U63:A3 8.584e-04
*RC MC/U63:A1 8.397e-04
*RC MC/curr_state_reg\[0\]:D 8.619e-04
*RC IRF/U2:A 1.558e-03
*RC IRF/U3:A 1.558e-03
*RC REG1/U3:A 7.495e-04
*RC PC/U200:A1 4.325e-04
*RC PC/U7:A 4.535e-04
*END

*R_NET ms_riscv32_mp_rc_in\[63\] 8.860e-01
*DRIVER ms_riscv32_mp_rc_in\[63\]
*CELL NULL
*C2_R1_C1 4.430e-01 4.976e-06 4.430e-01 
*LOADS
*RC CSRF/MC/U1262:A1 3.478e-06
*END

*R_NET ms_riscv32_mp_rc_in\[62\] 9.465e-01
*DRIVER ms_riscv32_mp_rc_in\[62\]
*CELL NULL
*C2_R1_C1 4.733e-01 5.988e-06 4.733e-01 
*LOADS
*RC CSRF/MC/U1261:A1 4.306e-06
*END

*R_NET ms_riscv32_mp_rc_in\[61\] 9.006e-01
*DRIVER ms_riscv32_mp_rc_in\[61\]
*CELL NULL
*C2_R1_C1 4.503e-01 5.221e-06 4.503e-01 
*LOADS
*RC CSRF/MC/U1260:A1 3.674e-06
*END

*R_NET ms_riscv32_mp_rc_in\[60\] 9.862e-01
*DRIVER ms_riscv32_mp_rc_in\[60\]
*CELL NULL
*C2_R1_C1 4.931e-01 6.970e-06 4.931e-01 
*LOADS
*RC CSRF/MC/U1259:A1 5.105e-06
*END

*R_NET ms_riscv32_mp_rc_in\[59\] 9.112e-01
*DRIVER ms_riscv32_mp_rc_in\[59\]
*CELL NULL
*C2_R1_C1 4.556e-01 5.398e-06 4.556e-01 
*LOADS
*RC CSRF/MC/U1258:A1 3.819e-06
*END

*R_NET ms_riscv32_mp_rc_in\[58\] 9.155e-01
*DRIVER ms_riscv32_mp_rc_in\[58\]
*CELL NULL
*C2_R1_C1 4.577e-01 5.929e-06 4.577e-01 
*LOADS
*RC CSRF/MC/U1257:A1 4.202e-06
*END

*R_NET ms_riscv32_mp_rc_in\[57\] 7.963e-01
*DRIVER ms_riscv32_mp_rc_in\[57\]
*CELL NULL
*C2_R1_C1 3.981e-01 3.629e-06 3.981e-01 
*LOADS
*RC CSRF/MC/U1256:A1 2.428e-06
*END

*R_NET ms_riscv32_mp_rc_in\[56\] 8.491e-01
*DRIVER ms_riscv32_mp_rc_in\[56\]
*CELL NULL
*C2_R1_C1 4.246e-01 4.609e-06 4.246e-01 
*LOADS
*RC CSRF/MC/U1255:A1 3.165e-06
*END

*R_NET ms_riscv32_mp_rc_in\[55\] 7.453e-01
*DRIVER ms_riscv32_mp_rc_in\[55\]
*CELL NULL
*C2_R1_C1 3.726e-01 2.624e-06 3.726e-01 
*LOADS
*RC CSRF/MC/U1254:A1 1.711e-06
*END

*R_NET ms_riscv32_mp_rc_in\[54\] 7.109e-01
*DRIVER ms_riscv32_mp_rc_in\[54\]
*CELL NULL
*C2_R1_C1 3.554e-01 2.049e-06 3.554e-01 
*LOADS
*RC CSRF/MC/U1253:A1 1.313e-06
*END

*R_NET ms_riscv32_mp_rc_in\[53\] 1.171e+00
*DRIVER ms_riscv32_mp_rc_in\[53\]
*CELL NULL
*C2_R1_C1 5.857e-01 9.909e-06 5.857e-01 
*LOADS
*RC CSRF/MC/U1252:A1 7.868e-06
*END

*R_NET ms_riscv32_mp_rc_in\[52\] 7.578e-01
*DRIVER ms_riscv32_mp_rc_in\[52\]
*CELL NULL
*C2_R1_C1 3.789e-01 3.112e-06 3.789e-01 
*LOADS
*RC CSRF/MC/U1251:A1 2.042e-06
*END

*R_NET ms_riscv32_mp_rc_in\[51\] 7.940e-01
*DRIVER ms_riscv32_mp_rc_in\[51\]
*CELL NULL
*C2_R1_C1 3.970e-01 3.620e-06 3.970e-01 
*LOADS
*RC CSRF/MC/U1250:A1 2.419e-06
*END

*R_NET ms_riscv32_mp_rc_in\[50\] 7.009e-01
*DRIVER ms_riscv32_mp_rc_in\[50\]
*CELL NULL
*C2_R1_C1 3.505e-01 1.883e-06 3.505e-01 
*LOADS
*RC CSRF/MC/U1249:A1 1.200e-06
*END

*R_NET ms_riscv32_mp_rc_in\[49\] 7.745e-01
*DRIVER ms_riscv32_mp_rc_in\[49\]
*CELL NULL
*C2_R1_C1 3.873e-01 3.113e-06 3.873e-01 
*LOADS
*RC CSRF/MC/U1248:A1 2.060e-06
*END

*R_NET ms_riscv32_mp_rc_in\[48\] 9.857e-01
*DRIVER ms_riscv32_mp_rc_in\[48\]
*CELL NULL
*C2_R1_C1 4.929e-01 7.438e-06 4.929e-01 
*LOADS
*RC CSRF/MC/U1247:A1 5.446e-06
*END

*R_NET ms_riscv32_mp_rc_in\[47\] 1.237e+00
*DRIVER ms_riscv32_mp_rc_in\[47\]
*CELL NULL
*C2_R1_C1 6.187e-01 1.305e-05 6.187e-01 
*LOADS
*RC CSRF/MC/U1246:A1 1.065e-05
*END

*R_NET ms_riscv32_mp_rc_in\[46\] 9.674e-01
*DRIVER ms_riscv32_mp_rc_in\[46\]
*CELL NULL
*C2_R1_C1 4.837e-01 7.526e-06 4.837e-01 
*LOADS
*RC CSRF/MC/U1245:A1 5.464e-06
*END

*R_NET ms_riscv32_mp_rc_in\[45\] 1.432e+00
*DRIVER ms_riscv32_mp_rc_in\[45\]
*CELL NULL
*C2_R1_C1 7.162e-01 1.686e-05 7.162e-01 
*LOADS
*RC CSRF/MC/U1244:A1 1.485e-05
*END

*R_NET ms_riscv32_mp_rc_in\[44\] 1.151e+00
*DRIVER ms_riscv32_mp_rc_in\[44\]
*CELL NULL
*C2_R1_C1 5.753e-01 1.026e-05 5.753e-01 
*LOADS
*RC CSRF/MC/U1243:A1 8.072e-06
*END

*R_NET ms_riscv32_mp_rc_in\[43\] 8.869e-01
*DRIVER ms_riscv32_mp_rc_in\[43\]
*CELL NULL
*C2_R1_C1 4.434e-01 5.241e-06 4.434e-01 
*LOADS
*RC CSRF/MC/U1242:A1 3.665e-06
*END

*R_NET ms_riscv32_mp_rc_in\[42\] 1.390e+00
*DRIVER ms_riscv32_mp_rc_in\[42\]
*CELL NULL
*C2_R1_C1 6.950e-01 1.496e-05 6.950e-01 
*LOADS
*RC CSRF/MC/U1241:A1 1.297e-05
*END

*R_NET ms_riscv32_mp_rc_in\[41\] 9.305e-01
*DRIVER ms_riscv32_mp_rc_in\[41\]
*CELL NULL
*C2_R1_C1 4.653e-01 6.424e-06 4.653e-01 
*LOADS
*RC CSRF/MC/U1240:A1 4.585e-06
*END

*R_NET ms_riscv32_mp_rc_in\[40\] 8.224e-01
*DRIVER ms_riscv32_mp_rc_in\[40\]
*CELL NULL
*C2_R1_C1 4.112e-01 4.632e-06 4.112e-01 
*LOADS
*RC CSRF/MC/U1239:A1 3.139e-06
*END

*R_NET ms_riscv32_mp_rc_in\[39\] 1.005e+00
*DRIVER ms_riscv32_mp_rc_in\[39\]
*CELL NULL
*C2_R1_C1 5.023e-01 7.519e-06 5.023e-01 
*LOADS
*RC CSRF/MC/U1238:A1 5.553e-06
*END

*R_NET ms_riscv32_mp_rc_in\[38\] 9.221e-01
*DRIVER ms_riscv32_mp_rc_in\[38\]
*CELL NULL
*C2_R1_C1 4.610e-01 5.590e-06 4.610e-01 
*LOADS
*RC CSRF/MC/U1237:A1 3.974e-06
*END

*R_NET ms_riscv32_mp_rc_in\[37\] 9.828e-01
*DRIVER ms_riscv32_mp_rc_in\[37\]
*CELL NULL
*C2_R1_C1 4.914e-01 6.789e-06 4.914e-01 
*LOADS
*RC CSRF/MC/U1236:A1 4.964e-06
*END

*R_NET ms_riscv32_mp_rc_in\[36\] 8.560e-01
*DRIVER ms_riscv32_mp_rc_in\[36\]
*CELL NULL
*C2_R1_C1 4.280e-01 4.820e-06 4.280e-01 
*LOADS
*RC CSRF/MC/U1235:A1 3.321e-06
*END

*R_NET ms_riscv32_mp_rc_in\[35\] 7.527e-01
*DRIVER ms_riscv32_mp_rc_in\[35\]
*CELL NULL
*C2_R1_C1 3.764e-01 2.947e-06 3.764e-01 
*LOADS
*RC CSRF/MC/U1234:A1 1.929e-06
*END

*R_NET ms_riscv32_mp_rc_in\[34\] 7.726e-01
*DRIVER ms_riscv32_mp_rc_in\[34\]
*CELL NULL
*C2_R1_C1 3.863e-01 3.585e-06 3.863e-01 
*LOADS
*RC CSRF/MC/U1233:A1 2.370e-06
*END

*R_NET ms_riscv32_mp_rc_in\[33\] 6.837e-01
*DRIVER ms_riscv32_mp_rc_in\[33\]
*CELL NULL
*C2_R1_C1 3.418e-01 1.595e-06 3.418e-01 
*LOADS
*RC CSRF/MC/U1232:A1 1.007e-06
*END

*R_NET ms_riscv32_mp_rc_in\[32\] 1.273e+00
*DRIVER ms_riscv32_mp_rc_in\[32\]
*CELL NULL
*C2_R1_C1 6.366e-01 1.209e-05 6.366e-01 
*LOADS
*RC CSRF/MC/U1231:A1 1.001e-05
*END

*R_NET ms_riscv32_mp_rc_in\[31\] 8.742e-01
*DRIVER ms_riscv32_mp_rc_in\[31\]
*CELL NULL
*C2_R1_C1 4.371e-01 5.570e-06 4.371e-01 
*LOADS
*RC CSRF/MC/U1230:A1 3.871e-06
*END

*R_NET ms_riscv32_mp_rc_in\[30\] 7.859e-01
*DRIVER ms_riscv32_mp_rc_in\[30\]
*CELL NULL
*C2_R1_C1 3.929e-01 3.303e-06 3.929e-01 
*LOADS
*RC CSRF/MC/U1229:A1 2.198e-06
*END

*R_NET ms_riscv32_mp_rc_in\[29\] 8.831e-01
*DRIVER ms_riscv32_mp_rc_in\[29\]
*CELL NULL
*C2_R1_C1 4.415e-01 5.254e-06 4.415e-01 
*LOADS
*RC CSRF/MC/U1228:A1 3.667e-06
*END

*R_NET ms_riscv32_mp_rc_in\[28\] 8.589e-01
*DRIVER ms_riscv32_mp_rc_in\[28\]
*CELL NULL
*C2_R1_C1 4.294e-01 4.523e-06 4.294e-01 
*LOADS
*RC CSRF/MC/U1227:A1 3.120e-06
*END

*R_NET ms_riscv32_mp_rc_in\[27\] 7.814e-01
*DRIVER ms_riscv32_mp_rc_in\[27\]
*CELL NULL
*C2_R1_C1 3.907e-01 3.228e-06 3.907e-01 
*LOADS
*RC CSRF/MC/U1226:A1 2.143e-06
*END

*R_NET ms_riscv32_mp_rc_in\[26\] 6.865e-01
*DRIVER ms_riscv32_mp_rc_in\[26\]
*CELL NULL
*C2_R1_C1 3.433e-01 1.642e-06 3.433e-01 
*LOADS
*RC CSRF/MC/U1225:A1 1.038e-06
*END

*R_NET ms_riscv32_mp_rc_in\[25\] 6.782e-01
*DRIVER ms_riscv32_mp_rc_in\[25\]
*CELL NULL
*C2_R1_C1 3.391e-01 1.502e-06 3.391e-01 
*LOADS
*RC CSRF/MC/U1224:A1 9.461e-07
*END

*R_NET ms_riscv32_mp_rc_in\[24\] 7.109e-01
*DRIVER ms_riscv32_mp_rc_in\[24\]
*CELL NULL
*C2_R1_C1 3.554e-01 2.049e-06 3.554e-01 
*LOADS
*RC CSRF/MC/U1223:A1 1.313e-06
*END

*R_NET ms_riscv32_mp_rc_in\[23\] 9.327e-01
*DRIVER ms_riscv32_mp_rc_in\[23\]
*CELL NULL
*C2_R1_C1 4.664e-01 6.043e-06 4.664e-01 
*LOADS
*RC CSRF/MC/U1222:A1 4.318e-06
*END

*R_NET ms_riscv32_mp_rc_in\[22\] 8.697e-01
*DRIVER ms_riscv32_mp_rc_in\[22\]
*CELL NULL
*C2_R1_C1 4.349e-01 5.247e-06 4.349e-01 
*LOADS
*RC CSRF/MC/U1221:A1 3.639e-06
*END

*R_NET ms_riscv32_mp_rc_in\[21\] 7.311e-01
*DRIVER ms_riscv32_mp_rc_in\[21\]
*CELL NULL
*C2_R1_C1 3.655e-01 2.387e-06 3.655e-01 
*LOADS
*RC CSRF/MC/U1219:A1 1.545e-06
*END

*R_NET ms_riscv32_mp_rc_in\[20\] 1.348e+00
*DRIVER ms_riscv32_mp_rc_in\[20\]
*CELL NULL
*C2_R1_C1 6.742e-01 1.330e-05 6.742e-01 
*LOADS
*RC CSRF/MC/U1216:A1 1.135e-05
*END

*R_NET ms_riscv32_mp_rc_in\[19\] 1.196e+00
*DRIVER ms_riscv32_mp_rc_in\[19\]
*CELL NULL
*C2_R1_C1 5.982e-01 1.069e-05 5.982e-01 
*LOADS
*RC CSRF/MC/U1215:A1 8.580e-06
*END

*R_NET ms_riscv32_mp_rc_in\[18\] 1.132e+00
*DRIVER ms_riscv32_mp_rc_in\[18\]
*CELL NULL
*C2_R1_C1 5.659e-01 9.086e-06 5.659e-01 
*LOADS
*RC CSRF/MC/U1214:A1 7.095e-06
*END

*R_NET ms_riscv32_mp_rc_in\[17\] 1.344e+00
*DRIVER ms_riscv32_mp_rc_in\[17\]
*CELL NULL
*C2_R1_C1 6.719e-01 1.324e-05 6.719e-01 
*LOADS
*RC CSRF/MC/U1213:A1 1.128e-05
*END

*R_NET ms_riscv32_mp_rc_in\[16\] 1.648e+00
*DRIVER ms_riscv32_mp_rc_in\[16\]
*CELL NULL
*C2_R1_C1 8.242e-01 1.927e-05 8.242e-01 
*LOADS
*RC CSRF/MC/U1212:A1 1.837e-05
*END

*R_NET ms_riscv32_mp_rc_in\[15\] 1.568e+00
*DRIVER ms_riscv32_mp_rc_in\[15\]
*CELL NULL
*C2_R1_C1 7.841e-01 1.807e-05 7.841e-01 
*LOADS
*RC CSRF/MC/U1211:A1 1.674e-05
*END

*R_NET ms_riscv32_mp_rc_in\[14\] 1.553e+00
*DRIVER ms_riscv32_mp_rc_in\[14\]
*CELL NULL
*C2_R1_C1 7.767e-01 1.762e-05 7.767e-01 
*LOADS
*RC CSRF/MC/U1210:A1 1.623e-05
*END

*R_NET ms_riscv32_mp_rc_in\[13\] 1.702e+00
*DRIVER ms_riscv32_mp_rc_in\[13\]
*CELL NULL
*C2_R1_C1 8.512e-01 2.059e-05 8.512e-01 
*LOADS
*RC CSRF/MC/U1209:A1 2.000e-05
*END

*R_NET ms_riscv32_mp_rc_in\[12\] 1.203e+00
*DRIVER ms_riscv32_mp_rc_in\[12\]
*CELL NULL
*C2_R1_C1 6.013e-01 1.027e-05 6.013e-01 
*LOADS
*RC CSRF/MC/U1208:A1 8.261e-06
*END

*R_NET ms_riscv32_mp_rc_in\[11\] 1.617e+00
*DRIVER ms_riscv32_mp_rc_in\[11\]
*CELL NULL
*C2_R1_C1 8.084e-01 1.940e-05 8.084e-01 
*LOADS
*RC CSRF/MC/U1207:A1 1.828e-05
*END

*R_NET ms_riscv32_mp_rc_in\[10\] 1.792e+00
*DRIVER ms_riscv32_mp_rc_in\[10\]
*CELL NULL
*C2_R1_C1 8.962e-01 2.229e-05 8.962e-01 
*LOADS
*RC CSRF/MC/U1206:A1 2.232e-05
*END

*R_NET ms_riscv32_mp_rc_in\[9\] 1.264e+00
*DRIVER ms_riscv32_mp_rc_in\[9\]
*CELL NULL
*C2_R1_C1 6.322e-01 1.264e-05 6.322e-01 
*LOADS
*RC CSRF/MC/U1205:A1 1.043e-05
*END

*R_NET ms_riscv32_mp_rc_in\[8\] 1.315e+00
*DRIVER ms_riscv32_mp_rc_in\[8\]
*CELL NULL
*C2_R1_C1 6.577e-01 1.362e-05 6.577e-01 
*LOADS
*RC CSRF/MC/U1204:A1 1.147e-05
*END

*R_NET ms_riscv32_mp_rc_in\[7\] 1.744e+00
*DRIVER ms_riscv32_mp_rc_in\[7\]
*CELL NULL
*C2_R1_C1 8.719e-01 2.164e-05 8.719e-01 
*LOADS
*RC CSRF/MC/U1203:A1 2.131e-05
*END

*R_NET ms_riscv32_mp_rc_in\[6\] 1.497e+00
*DRIVER ms_riscv32_mp_rc_in\[6\]
*CELL NULL
*C2_R1_C1 7.486e-01 1.679e-05 7.486e-01 
*LOADS
*RC CSRF/MC/U1202:A1 1.516e-05
*END

*R_NET ms_riscv32_mp_rc_in\[5\] 1.524e+00
*DRIVER ms_riscv32_mp_rc_in\[5\]
*CELL NULL
*C2_R1_C1 7.619e-01 1.746e-05 7.619e-01 
*LOADS
*RC CSRF/MC/U1200:A1 1.591e-05
*END

*R_NET ms_riscv32_mp_rc_in\[4\] 1.629e+00
*DRIVER ms_riscv32_mp_rc_in\[4\]
*CELL NULL
*C2_R1_C1 8.145e-01 1.922e-05 8.145e-01 
*LOADS
*RC CSRF/MC/U1199:A1 1.819e-05
*END

*R_NET ms_riscv32_mp_rc_in\[3\] 1.705e+00
*DRIVER ms_riscv32_mp_rc_in\[3\]
*CELL NULL
*C2_R1_C1 8.523e-01 2.207e-05 8.523e-01 
*LOADS
*RC CSRF/MC/U1198:A1 2.144e-05
*END

*R_NET ms_riscv32_mp_rc_in\[2\] 1.532e+00
*DRIVER ms_riscv32_mp_rc_in\[2\]
*CELL NULL
*C2_R1_C1 7.660e-01 1.843e-05 7.660e-01 
*LOADS
*RC CSRF/MC/U1197:A1 1.685e-05
*END

*R_NET ms_riscv32_mp_rc_in\[1\] 1.752e+00
*DRIVER ms_riscv32_mp_rc_in\[1\]
*CELL NULL
*C2_R1_C1 8.758e-01 2.293e-05 8.758e-01 
*LOADS
*RC CSRF/MC/U1196:A1 2.264e-05
*END

*R_NET ms_riscv32_mp_rc_in\[0\] 1.651e+00
*DRIVER ms_riscv32_mp_rc_in\[0\]
*CELL NULL
*C2_R1_C1 8.254e-01 1.914e-05 8.254e-01 
*LOADS
*RC CSRF/MC/U1195:A1 1.826e-05
*END

*R_NET ms_riscv32_mp_imaddr_out\[31\] 3.612e-01
*DRIVER PC/i_addr_reg\[31\]:Q
*CELL LATCHX1_LVT
*C2_R1_C1 1.806e-01 6.334e-06 1.806e-01 
*LOADS
*RC ms_riscv32_mp_imaddr_out\[31\] 7.626e-07
*END

*R_NET ms_riscv32_mp_imaddr_out\[30\] 3.532e-01
*DRIVER PC/i_addr_reg\[30\]:Q
*CELL LATCHX1_LVT
*C2_R1_C1 1.766e-01 6.549e-06 1.766e-01 
*LOADS
*RC ms_riscv32_mp_imaddr_out\[30\] 7.710e-07
*END

*R_NET ms_riscv32_mp_imaddr_out\[29\] 3.410e-01
*DRIVER PC/i_addr_reg\[29\]:Q
*CELL LATCHX1_LVT
*C2_R1_C1 1.705e-01 6.106e-06 1.705e-01 
*LOADS
*RC ms_riscv32_mp_imaddr_out\[29\] 6.940e-07
*END

*R_NET ms_riscv32_mp_imaddr_out\[28\] 1.463e-01
*DRIVER PC/i_addr_reg\[28\]:Q
*CELL LATCHX1_LVT
*C2_R1_C1 7.317e-02 3.142e-06 7.317e-02 
*LOADS
*RC ms_riscv32_mp_imaddr_out\[28\] 1.533e-07
*END

*R_NET ms_riscv32_mp_imaddr_out\[27\] 5.068e-01
*DRIVER PC/i_addr_reg\[27\]:Q
*CELL LATCHX1_LVT
*C2_R1_C1 2.534e-01 9.550e-06 2.534e-01 
*LOADS
*RC ms_riscv32_mp_imaddr_out\[27\] 1.613e-06
*END

*R_NET ms_riscv32_mp_imaddr_out\[26\] 1.624e-01
*DRIVER PC/i_addr_reg\[26\]:Q
*CELL LATCHX1_LVT
*C2_R1_C1 8.121e-02 3.011e-06 8.121e-02 
*LOADS
*RC ms_riscv32_mp_imaddr_out\[26\] 1.630e-07
*END

*R_NET ms_riscv32_mp_imaddr_out\[25\] 2.613e-01
*DRIVER PC/i_addr_reg\[25\]:Q
*CELL LATCHX1_LVT
*C2_R1_C1 1.306e-01 5.543e-06 1.306e-01 
*LOADS
*RC ms_riscv32_mp_imaddr_out\[25\] 4.827e-07
*END

*R_NET ms_riscv32_mp_imaddr_out\[24\] 1.331e-01
*DRIVER PC/i_addr_reg\[24\]:Q
*CELL LATCHX1_LVT