*SPEF "IEEE 1481-1999"
*DESIGN "msrv32_top"
*DATE "Thu Apr 24 11:29:44 2025"
*VENDOR "SYNOPSYS INC"
*PROGRAM "Synopsys Design Compiler (R) NXT cmos"
*VERSION "T-2022.03-SP4"
*DESIGN_FLOW "SYNTHESIS"
*DIVIDER /
*DELIMITER :
*BUS_DELIMITER []
*T_UNIT 1.0 NS
*C_UNIT 0.0010 PF
*R_UNIT 1000.0 KOHM
*L_UNIT 1.0 HENRY

*PORTS

ms_riscv32_mp_clk_in I *L 0.000e+00 *S 0.000e+00 0.000e+00 
ms_riscv32_mp_rst_in I *L 0.000e+00 *S 0.000e+00 0.000e+00 
ms_riscv32_mp_rc_in\[63\] I *L 0.000e+00 *S 0.000e+00 0.000e+00 
ms_riscv32_mp_rc_in\[62\] I *L 0.000e+00 *S 0.000e+00 0.000e+00 
ms_riscv32_mp_rc_in\[61\] I *L 0.000e+00 *S 0.000e+00 0.000e+00 
ms_riscv32_mp_rc_in\[60\] I *L 0.000e+00 *S 0.000e+00 0.000e+00 
ms_riscv32_mp_rc_in\[59\] I *L 0.000e+00 *S 0.000e+00 0.000e+00 
ms_riscv32_mp_rc_in\[58\] I *L 0.000e+00 *S 0.000e+00 0.000e+00 
ms_riscv32_mp_rc_in\[57\] I *L 0.000e+00 *S 0.000e+00 0.000e+00 
ms_riscv32_mp_rc_in\[56\] I *L 0.000e+00 *S 0.000e+00 0.000e+00 
ms_riscv32_mp_rc_in\[55\] I *L 0.000e+00 *S 0.000e+00 0.000e+00 
ms_riscv32_mp_rc_in\[54\] I *L 0.000e+00 *S 0.000e+00 0.000e+00 
ms_riscv32_mp_rc_in\[53\] I *L 0.000e+00 *S 0.000e+00 0.000e+00 
ms_riscv32_mp_rc_in\[52\] I *L 0.000e+00 *S 0.000e+00 0.000e+00 
ms_riscv32_mp_rc_in\[51\] I *L 0.000e+00 *S 0.000e+00 0.000e+00 
ms_riscv32_mp_rc_in\[50\] I *L 0.000e+00 *S 0.000e+00 0.000e+00 
ms_riscv32_mp_rc_in\[49\] I *L 0.000e+00 *S 0.000e+00 0.000e+00 
ms_riscv32_mp_rc_in\[48\] I *L 0.000e+00 *S 0.000e+00 0.000e+00 
ms_riscv32_mp_rc_in\[47\] I *L 0.000e+00 *S 0.000e+00 0.000e+00 
ms_riscv32_mp_rc_in\[46\] I *L 0.000e+00 *S 0.000e+00 0.000e+00 
ms_riscv32_mp_rc_in\[45\] I *L 0.000e+00 *S 0.000e+00 0.000e+00 
ms_riscv32_mp_rc_in\[44\] I *L 0.000e+00 *S 0.000e+00 0.000e+00 
ms_riscv32_mp_rc_in\[43\] I *L 0.000e+00 *S 0.000e+00 0.000e+00 
ms_riscv32_mp_rc_in\[42\] I *L 0.000e+00 *S 0.000e+00 0.000e+00 
ms_riscv32_mp_rc_in\[41\] I *L 0.000e+00 *S 0.000e+00 0.000e+00 
ms_riscv32_mp_rc_in\[40\] I *L 0.000e+00 *S 0.000e+00 0.000e+00 
ms_riscv32_mp_rc_in\[39\] I *L 0.000e+00 *S 0.000e+00 0.000e+00 
ms_riscv32_mp_rc_in\[38\] I *L 0.000e+00 *S 0.000e+00 0.000e+00 
ms_riscv32_mp_rc_in\[37\] I *L 0.000e+00 *S 0.000e+00 0.000e+00 
ms_riscv32_mp_rc_in\[36\] I *L 0.000e+00 *S 0.000e+00 0.000e+00 
ms_riscv32_mp_rc_in\[35\] I *L 0.000e+00 *S 0.000e+00 0.000e+00 
ms_riscv32_mp_rc_in\[34\] I *L 0.000e+00 *S 0.000e+00 0.000e+00 
ms_riscv32_mp_rc_in\[33\] I *L 0.000e+00 *S 0.000e+00 0.000e+00 
ms_riscv32_mp_rc_in\[32\] I *L 0.000e+00 *S 0.000e+00 0.000e+00 
ms_riscv32_mp_rc_in\[31\] I *L 0.000e+00 *S 0.000e+00 0.000e+00 
ms_riscv32_mp_rc_in\[30\] I *L 0.000e+00 *S 0.000e+00 0.000e+00 
ms_riscv32_mp_rc_in\[29\] I *L 0.000e+00 *S 0.000e+00 0.000e+00 
ms_riscv32_mp_rc_in\[28\] I *L 0.000e+00 *S 0.000e+00 0.000e+00 
ms_riscv32_mp_rc_in\[27\] I *L 0.000e+00 *S 0.000e+00 0.000e+00 
ms_riscv32_mp_rc_in\[26\] I *L 0.000e+00 *S 0.000e+00 0.000e+00 
ms_riscv32_mp_rc_in\[25\] I *L 0.000e+00 *S 0.000e+00 0.000e+00 
ms_riscv32_mp_rc_in\[24\] I *L 0.000e+00 *S 0.000e+00 0.000e+00 
ms_riscv32_mp_rc_in\[23\] I *L 0.000e+00 *S 0.000e+00 0.000e+00 
ms_riscv32_mp_rc_in\[22\] I *L 0.000e+00 *S 0.000e+00 0.000e+00 
ms_riscv32_mp_rc_in\[21\] I *L 0.000e+00 *S 0.000e+00 0.000e+00 
ms_riscv32_mp_rc_in\[20\] I *L 0.000e+00 *S 0.000e+00 0.000e+00 
ms_riscv32_mp_rc_in\[19\] I *L 0.000e+00 *S 0.000e+00 0.000e+00 
ms_riscv32_mp_rc_in\[18\] I *L 0.000e+00 *S 0.000e+00 0.000e+00 
ms_riscv32_mp_rc_in\[17\] I *L 0.000e+00 *S 0.000e+00 0.000e+00 
ms_riscv32_mp_rc_in\[16\] I *L 0.000e+00 *S 0.000e+00 0.000e+00 
ms_riscv32_mp_rc_in\[15\] I *L 0.000e+00 *S 0.000e+00 0.000e+00 
ms_riscv32_mp_rc_in\[14\] I *L 0.000e+00 *S 0.000e+00 0.000e+00 
ms_riscv32_mp_rc_in\[13\] I *L 0.000e+00 *S 0.000e+00 0.000e+00 
ms_riscv32_mp_rc_in\[12\] I *L 0.000e+00 *S 0.000e+00 0.000e+00 
ms_riscv32_mp_rc_in\[11\] I *L 0.000e+00 *S 0.000e+00 0.000e+00 
ms_riscv32_mp_rc_in\[10\] I *L 0.000e+00 *S 0.000e+00 0.000e+00 
ms_riscv32_mp_rc_in\[9\] I *L 0.000e+00 *S 0.000e+00 0.000e+00 
ms_riscv32_mp_rc_in\[8\] I *L 0.000e+00 *S 0.000e+00 0.000e+00 
ms_riscv32_mp_rc_in\[7\] I *L 0.000e+00 *S 0.000e+00 0.000e+00 
ms_riscv32_mp_rc_in\[6\] I *L 0.000e+00 *S 0.000e+00 0.000e+00 
ms_riscv32_mp_rc_in\[5\] I *L 0.000e+00 *S 0.000e+00 0.000e+00 
ms_riscv32_mp_rc_in\[4\] I *L 0.000e+00 *S 0.000e+00 0.000e+00 
ms_riscv32_mp_rc_in\[3\] I *L 0.000e+00 *S 0.000e+00 0.000e+00 
ms_riscv32_mp_rc_in\[2\] I *L 0.000e+00 *S 0.000e+00 0.000e+00 
ms_riscv32_mp_rc_in\[1\] I *L 0.000e+00 *S 0.000e+00 0.000e+00 
ms_riscv32_mp_rc_in\[0\] I *L 0.000e+00 *S 0.000e+00 0.000e+00 
ms_riscv32_mp_imaddr_out\[31\] O *L 0.000e+00 *S 4.077e-02 4.436e-02 
ms_riscv32_mp_imaddr_out\[30\] O *L 0.000e+00 *S 4.027e-02 4.384e-02 
ms_riscv32_mp_imaddr_out\[29\] O *L 0.000e+00 *S 4.078e-02 4.436e-02 
ms_riscv32_mp_imaddr_out\[28\] O *L 0.000e+00 *S 2.112e-02 2.347e-02 
ms_riscv32_mp_imaddr_out\[27\] O *L 0.000e+00 *S 1.909e-02 2.126e-02 
ms_riscv32_mp_imaddr_out\[26\] O *L 0.000e+00 *S 2.119e-02 2.354e-02 
ms_riscv32_mp_imaddr_out\[25\] O *L 0.000e+00 *S 1.994e-02 2.218e-02 
ms_riscv32_mp_imaddr_out\[24\] O *L 0.000e+00 *S 2.300e-02 2.551e-02 
ms_riscv32_mp_imaddr_out\[23\] O *L 0.000e+00 *S 1.948e-02 2.168e-02 
ms_riscv32_mp_imaddr_out\[22\] O *L 0.000e+00 *S 2.162e-02 2.401e-02 
ms_riscv32_mp_imaddr_out\[21\] O *L 0.000e+00 *S 2.306e-02 2.558e-02 
ms_riscv32_mp_imaddr_out\[20\] O *L 0.000e+00 *S 2.820e-02 3.118e-02 
ms_riscv32_mp_imaddr_out\[19\] O *L 0.000e+00 *S 2.263e-02 2.511e-02 
ms_riscv32_mp_imaddr_out\[18\] O *L 0.000e+00 *S 2.315e-02 2.568e-02 
ms_riscv32_mp_imaddr_out\[17\] O *L 0.000e+00 *S 2.470e-02 2.737e-02 
ms_riscv32_mp_imaddr_out\[16\] O *L 0.000e+00 *S 4.195e-02 4.559e-02 
ms_riscv32_mp_imaddr_out\[15\] O *L 0.000e+00 *S 4.332e-02 4.701e-02 
ms_riscv32_mp_imaddr_out\[14\] O *L 0.000e+00 *S 1.014e-02 1.138e-02 
ms_riscv32_mp_imaddr_out\[13\] O *L 0.000e+00 *S 4.325e-03 4.913e-03 
ms_riscv32_mp_imaddr_out\[12\] O *L 0.000e+00 *S 7.333e-03 8.266e-03 
ms_riscv32_mp_imaddr_out\[11\] O *L 0.000e+00 *S 8.086e-03 9.103e-03 
ms_riscv32_mp_imaddr_out\[10\] O *L 0.000e+00 *S 1.336e-03 1.521e-03 
ms_riscv32_mp_imaddr_out\[9\] O *L 0.000e+00 *S 2.430e-03 2.767e-03 
ms_riscv32_mp_imaddr_out\[8\] O *L 0.000e+00 *S 5.193e-03 5.885e-03 
ms_riscv32_mp_imaddr_out\[7\] O *L 0.000e+00 *S 6.050e-03 6.838e-03 
ms_riscv32_mp_imaddr_out\[6\] O *L 0.000e+00 *S 6.305e-03 7.123e-03 
ms_riscv32_mp_imaddr_out\[5\] O *L 0.000e+00 *S 1.228e-02 1.376e-02 
ms_riscv32_mp_imaddr_out\[4\] O *L 0.000e+00 *S 9.202e-03 1.034e-02 
ms_riscv32_mp_imaddr_out\[3\] O *L 0.000e+00 *S 7.599e-03 8.561e-03 
ms_riscv32_mp_imaddr_out\[2\] O *L 0.000e+00 *S 9.032e-03 1.015e-02 
ms_riscv32_mp_imaddr_out\[1\] O *L 0.000e+00 *S 1.096e-02 1.230e-02 
ms_riscv32_mp_imaddr_out\[0\] O *L 0.000e+00 *S 0.000e+00 0.000e+00 
ms_riscv32_mp_instr_in\[31\] I *L 0.000e+00 *S 0.000e+00 0.000e+00 
ms_riscv32_mp_instr_in\[30\] I *L 0.000e+00 *S 0.000e+00 0.000e+00 
ms_riscv32_mp_instr_in\[29\] I *L 0.000e+00 *S 0.000e+00 0.000e+00 
ms_riscv32_mp_instr_in\[28\] I *L 0.000e+00 *S 0.000e+00 0.000e+00 
ms_riscv32_mp_instr_in\[27\] I *L 0.000e+00 *S 0.000e+00 0.000e+00 
ms_riscv32_mp_instr_in\[26\] I *L 0.000e+00 *S 0.000e+00 0.000e+00 
ms_riscv32_mp_instr_in\[25\] I *L 0.000e+00 *S 0.000e+00 0.000e+00 
ms_riscv32_mp_instr_in\[24\] I *L 0.000e+00 *S 0.000e+00 0.000e+00 
ms_riscv32_mp_instr_in\[23\] I *L 0.000e+00 *S 0.000e+00 0.000e+00 
ms_riscv32_mp_instr_in\[22\] I *L 0.000e+00 *S 0.000e+00 0.000e+00 
ms_riscv32_mp_instr_in\[21\] I *L 0.000e+00 *S 0.000e+00 0.000e+00 
ms_riscv32_mp_instr_in\[20\] I *L 0.000e+00 *S 0.000e+00 0.000e+00 
ms_riscv32_mp_instr_in\[19\] I *L 0.000e+00 *S 0.000e+00 0.000e+00 
ms_riscv32_mp_instr_in\[18\] I *L 0.000e+00 *S 0.000e+00 0.000e+00 
ms_riscv32_mp_instr_in\[17\] I *L 0.000e+00 *S 0.000e+00 0.000e+00 
ms_riscv32_mp_instr_in\[16\] I *L 0.000e+00 *S 0.000e+00 0.000e+00 
ms_riscv32_mp_instr_in\[15\] I *L 0.000e+00 *S 0.000e+00 0.000e+00 
ms_riscv32_mp_instr_in\[14\] I *L 0.000e+00 *S 0.000e+00 0.000e+00 
ms_riscv32_mp_instr_in\[13\] I *L 0.000e+00 *S 0.000e+00 0.000e+00 
ms_riscv32_mp_instr_in\[12\] I *L 0.000e+00 *S 0.000e+00 0.000e+00 
ms_riscv32_mp_instr_in\[11\] I *L 0.000e+00 *S 0.000e+00 0.000e+00 
ms_riscv32_mp_instr_in\[10\] I *L 0.000e+00 *S 0.000e+00 0.000e+00 
ms_riscv32_mp_instr_in\[9\] I *L 0.000e+00 *S 0.000e+00 0.000e+00 
ms_riscv32_mp_instr_in\[8\] I *L 0.000e+00 *S 0.000e+00 0.000e+00 
ms_riscv32_mp_instr_in\[7\] I *L 0.000e+00 *S 0.000e+00 0.000e+00 
ms_riscv32_mp_instr_in\[6\] I *L 0.000e+00 *S 0.000e+00 0.000e+00 
ms_riscv32_mp_instr_in\[5\] I *L 0.000e+00 *S 0.000e+00 0.000e+00 
ms_riscv32_mp_instr_in\[4\] I *L 0.000e+00 *S 0.000e+00 0.000e+00 
ms_riscv32_mp_instr_in\[3\] I *L 0.000e+00 *S 0.000e+00 0.000e+00 
ms_riscv32_mp_instr_in\[2\] I *L 0.000e+00 *S 0.000e+00 0.000e+00 
ms_riscv32_mp_instr_in\[1\] I *L 0.000e+00 *S 0.000e+00 0.000e+00 
ms_riscv32_mp_instr_in\[0\] I *L 0.000e+00 *S 0.000e+00 0.000e+00 
ms_riscv32_mp_instr_hready_in I *L 0.000e+00 *S 0.000e+00 0.000e+00 
ms_riscv32_mp_dmaddr_out\[31\] O *L 0.000e+00 *S 3.377e-02 3.676e-02 
ms_riscv32_mp_dmaddr_out\[30\] O *L 0.000e+00 *S 1.465e-02 1.690e-02 
ms_riscv32_mp_dmaddr_out\[29\] O *L 0.000e+00 *S 1.519e-02 1.751e-02 
ms_riscv32_mp_dmaddr_out\[28\] O *L 0.000e+00 *S 1.443e-02 1.665e-02 
ms_riscv32_mp_dmaddr_out\[27\] O *L 0.000e+00 *S 1.440e-02 1.661e-02 
ms_riscv32_mp_dmaddr_out\[26\] O *L 0.000e+00 *S 1.398e-02 1.614e-02 
ms_riscv32_mp_dmaddr_out\[25\] O *L 0.000e+00 *S 1.449e-02 1.672e-02 
ms_riscv32_mp_dmaddr_out\[24\] O *L 0.000e+00 *S 1.476e-02 1.704e-02 
ms_riscv32_mp_dmaddr_out\[23\] O *L 0.000e+00 *S 1.427e-02 1.647e-02 
ms_riscv32_mp_dmaddr_out\[22\] O *L 0.000e+00 *S 1.423e-02 1.642e-02 
ms_riscv32_mp_dmaddr_out\[21\] O *L 0.000e+00 *S 1.489e-02 1.719e-02 
ms_riscv32_mp_dmaddr_out\[20\] O *L 0.000e+00 *S 1.504e-02 1.734e-02 
ms_riscv32_mp_dmaddr_out\[19\] O *L 0.000e+00 *S 1.524e-02 1.756e-02 
ms_riscv32_mp_dmaddr_out\[18\] O *L 0.000e+00 *S 1.577e-02 1.813e-02 
ms_riscv32_mp_dmaddr_out\[17\] O *L 0.000e+00 *S 1.516e-02 1.748e-02 
ms_riscv32_mp_dmaddr_out\[16\] O *L 0.000e+00 *S 1.765e-02 2.016e-02 
ms_riscv32_mp_dmaddr_out\[15\] O *L 0.000e+00 *S 1.976e-02 2.245e-02 
ms_riscv32_mp_dmaddr_out\[14\] O *L 0.000e+00 *S 1.982e-02 2.251e-02 
ms_riscv32_mp_dmaddr_out\[13\] O *L 0.000e+00 *S 1.881e-02 2.143e-02 
ms_riscv32_mp_dmaddr_out\[12\] O *L 0.000e+00 *S 1.857e-02 2.116e-02 
ms_riscv32_mp_dmaddr_out\[11\] O *L 0.000e+00 *S 2.004e-02 2.275e-02 
ms_riscv32_mp_dmaddr_out\[10\] O *L 0.000e+00 *S 1.770e-02 2.022e-02 
ms_riscv32_mp_dmaddr_out\[9\] O *L 0.000e+00 *S 1.707e-02 1.954e-02 
ms_riscv32_mp_dmaddr_out\[8\] O *L 0.000e+00 *S 1.758e-02 2.010e-02 
ms_riscv32_mp_dmaddr_out\[7\] O *L 0.000e+00 *S 1.822e-02 2.079e-02 
ms_riscv32_mp_dmaddr_out\[6\] O *L 0.000e+00 *S 1.654e-02 1.896e-02 
ms_riscv32_mp_dmaddr_out\[5\] O *L 0.000e+00 *S 1.694e-02 1.940e-02 
ms_riscv32_mp_dmaddr_out\[4\] O *L 0.000e+00 *S 1.686e-02 1.931e-02 
ms_riscv32_mp_dmaddr_out\[3\] O *L 0.000e+00 *S 1.724e-02 1.972e-02 
ms_riscv32_mp_dmaddr_out\[2\] O *L 0.000e+00 *S 1.825e-02 2.082e-02 
ms_riscv32_mp_dmaddr_out\[1\] O *L 0.000e+00 *S 0.000e+00 0.000e+00 
ms_riscv32_mp_dmaddr_out\[0\] O *L 0.000e+00 *S 0.000e+00 0.000e+00 
ms_riscv32_mp_dmdata_out\[31\] O *L 0.000e+00 *S 2.537e-03 2.887e-03 
ms_riscv32_mp_dmdata_out\[30\] O *L 0.000e+00 *S 4.281e-03 4.863e-03 
ms_riscv32_mp_dmdata_out\[29\] O *L 0.000e+00 *S 5.150e-03 5.838e-03 
ms_riscv32_mp_dmdata_out\[28\] O *L 0.000e+00 *S 9.042e-04 1.029e-03 
ms_riscv32_mp_dmdata_out\[27\] O *L 0.000e+00 *S 3.324e-03 3.779e-03 
ms_riscv32_mp_dmdata_out\[26\] O *L 0.000e+00 *S 4.875e-03 5.531e-03 
ms_riscv32_mp_dmdata_out\[25\] O *L 0.000e+00 *S 4.464e-03 5.070e-03 
ms_riscv32_mp_dmdata_out\[24\] O *L 0.000e+00 *S 4.948e-03 5.613e-03 
ms_riscv32_mp_dmdata_out\[23\] O *L 0.000e+00 *S 6.723e-03 7.587e-03 
ms_riscv32_mp_dmdata_out\[22\] O *L 0.000e+00 *S 4.055e-03 4.607e-03 
ms_riscv32_mp_dmdata_out\[21\] O *L 0.000e+00 *S 4.013e-03 4.559e-03 
ms_riscv32_mp_dmdata_out\[20\] O *L 0.000e+00 *S 4.912e-03 5.572e-03 
ms_riscv32_mp_dmdata_out\[19\] O *L 0.000e+00 *S 5.853e-03 6.620e-03 
ms_riscv32_mp_dmdata_out\[18\] O *L 0.000e+00 *S 3.443e-03 3.914e-03 
ms_riscv32_mp_dmdata_out\[17\] O *L 0.000e+00 *S 7.849e-03 8.840e-03 
ms_riscv32_mp_dmdata_out\[16\] O *L 0.000e+00 *S 5.943e-03 6.720e-03 
ms_riscv32_mp_dmdata_out\[15\] O *L 0.000e+00 *S 7.332e-03 8.265e-03 
ms_riscv32_mp_dmdata_out\[14\] O *L 0.000e+00 *S 8.736e-03 9.826e-03 
ms_riscv32_mp_dmdata_out\[13\] O *L 0.000e+00 *S 8.029e-03 9.039e-03 
ms_riscv32_mp_dmdata_out\[12\] O *L 0.000e+00 *S 4.087e-03 4.643e-03 
ms_riscv32_mp_dmdata_out\[11\] O *L 0.000e+00 *S 9.140e-03 1.027e-02 
ms_riscv32_mp_dmdata_out\[10\] O *L 0.000e+00 *S 7.175e-03 8.090e-03 
ms_riscv32_mp_dmdata_out\[9\] O *L 0.000e+00 *S 7.639e-03 8.605e-03 
ms_riscv32_mp_dmdata_out\[8\] O *L 0.000e+00 *S 4.055e-03 4.607e-03 
ms_riscv32_mp_dmdata_out\[7\] O *L 0.000e+00 *S 3.936e-03 4.472e-03 
ms_riscv32_mp_dmdata_out\[6\] O *L 0.000e+00 *S 4.314e-03 4.900e-03 
ms_riscv32_mp_dmdata_out\[5\] O *L 0.000e+00 *S 2.196e-03 2.500e-03 
ms_riscv32_mp_dmdata_out\[4\] O *L 0.000e+00 *S 3.902e-03 4.433e-03 
ms_riscv32_mp_dmdata_out\[3\] O *L 0.000e+00 *S 1.399e-03 1.593e-03 
ms_riscv32_mp_dmdata_out\[2\] O *L 0.000e+00 *S 3.021e-03 3.435e-03 
ms_riscv32_mp_dmdata_out\[1\] O *L 0.000e+00 *S 2.924e-03 3.326e-03 
ms_riscv32_mp_dmdata_out\[0\] O *L 0.000e+00 *S 5.876e-03 6.645e-03 
ms_riscv32_mp_dmwr_req_out O *L 0.000e+00 *S 2.259e-02 2.552e-02 
ms_riscv32_mp_dmwr_mask_out\[3\] O *L 0.000e+00 *S 1.848e-02 2.050e-02 
ms_riscv32_mp_dmwr_mask_out\[2\] O *L 0.000e+00 *S 2.404e-02 2.743e-02 
ms_riscv32_mp_dmwr_mask_out\[1\] O *L 0.000e+00 *S 1.640e-02 1.827e-02 
ms_riscv32_mp_dmwr_mask_out\[0\] O *L 0.000e+00 *S 1.297e-02 1.497e-02 
ms_riscv32_mp_data_in\[31\] I *L 0.000e+00 *S 0.000e+00 0.000e+00 
ms_riscv32_mp_data_in\[30\] I *L 0.000e+00 *S 0.000e+00 0.000e+00 
ms_riscv32_mp_data_in\[29\] I *L 0.000e+00 *S 0.000e+00 0.000e+00 
ms_riscv32_mp_data_in\[28\] I *L 0.000e+00 *S 0.000e+00 0.000e+00 
ms_riscv32_mp_data_in\[27\] I *L 0.000e+00 *S 0.000e+00 0.000e+00 
ms_riscv32_mp_data_in\[26\] I *L 0.000e+00 *S 0.000e+00 0.000e+00 
ms_riscv32_mp_data_in\[25\] I *L 0.000e+00 *S 0.000e+00 0.000e+00 
ms_riscv32_mp_data_in\[24\] I *L 0.000e+00 *S 0.000e+00 0.000e+00 
ms_riscv32_mp_data_in\[23\] I *L 0.000e+00 *S 0.000e+00 0.000e+00 
ms_riscv32_mp_data_in\[22\] I *L 0.000e+00 *S 0.000e+00 0.000e+00 
ms_riscv32_mp_data_in\[21\] I *L 0.000e+00 *S 0.000e+00 0.000e+00 
ms_riscv32_mp_data_in\[20\] I *L 0.000e+00 *S 0.000e+00 0.000e+00 
ms_riscv32_mp_data_in\[19\] I *L 0.000e+00 *S 0.000e+00 0.000e+00 
ms_riscv32_mp_data_in\[18\] I *L 0.000e+00 *S 0.000e+00 0.000e+00 
ms_riscv32_mp_data_in\[17\] I *L 0.000e+00 *S 0.000e+00 0.000e+00 
ms_riscv32_mp_data_in\[16\] I *L 0.000e+00 *S 0.000e+00 0.000e+00 
ms_riscv32_mp_data_in\[15\] I *L 0.000e+00 *S 0.000e+00 0.000e+00 
ms_riscv32_mp_data_in\[14\] I *L 0.000e+00 *S 0.000e+00 0.000e+00 
ms_riscv32_mp_data_in\[13\] I *L 0.000e+00 *S 0.000e+00 0.000e+00 
ms_riscv32_mp_data_in\[12\] I *L 0.000e+00 *S 0.000e+00 0.000e+00 
ms_riscv32_mp_data_in\[11\] I *L 0.000e+00 *S 0.000e+00 0.000e+00 
ms_riscv32_mp_data_in\[10\] I *L 0.000e+00 *S 0.000e+00 0.000e+00 
ms_riscv32_mp_data_in\[9\] I *L 0.000e+00 *S 0.000e+00 0.000e+00 
ms_riscv32_mp_data_in\[8\] I *L 0.000e+00 *S 0.000e+00 0.000e+00 
ms_riscv32_mp_data_in\[7\] I *L 0.000e+00 *S 0.000e+00 0.000e+00 
ms_riscv32_mp_data_in\[6\] I *L 0.000e+00 *S 0.000e+00 0.000e+00 
ms_riscv32_mp_data_in\[5\] I *L 0.000e+00 *S 0.000e+00 0.000e+00 
ms_riscv32_mp_data_in\[4\] I *L 0.000e+00 *S 0.000e+00 0.000e+00 
ms_riscv32_mp_data_in\[3\] I *L 0.000e+00 *S 0.000e+00 0.000e+00 
ms_riscv32_mp_data_in\[2\] I *L 0.000e+00 *S 0.000e+00 0.000e+00 
ms_riscv32_mp_data_in\[1\] I *L 0.000e+00 *S 0.000e+00 0.000e+00 
ms_riscv32_mp_data_in\[0\] I *L 0.000e+00 *S 0.000e+00 0.000e+00 
ms_riscv32_mp_data_hready_in I *L 0.000e+00 *S 0.000e+00 0.000e+00 
ms_riscv32_mp_hresp_in I *L 0.000e+00 *S 0.000e+00 0.000e+00 
ms_riscv32_mp_data_htrans_out\[1\] O *L 0.000e+00 *S 0.000e+00 0.000e+00 
ms_riscv32_mp_data_htrans_out\[0\] O *L 0.000e+00 *S 0.000e+00 0.000e+00 
ms_riscv32_mp_eirq_in I *L 0.000e+00 *S 0.000e+00 0.000e+00 
ms_riscv32_mp_tirq_in I *L 0.000e+00 *S 0.000e+00 0.000e+00 
ms_riscv32_mp_sirq_in I *L 0.000e+00 *S 0.000e+00 0.000e+00 

*R_NET ms_riscv32_mp_rst_in 2.821e+02
*DRIVER ms_riscv32_mp_rst_in
*CELL NULL
*C2_R1_C1 1.411e+02 5.244e-04 1.411e+02 
*LOADS
*RC CSRF/MIE_REG/U4:A1 7.467e-03
*RC CSRF/MIE_REG/U8:A1 5.154e-03
*RC CSRF/MS/U17:A1 5.434e-03
*RC CSRF/MS/U4:A 6.008e-03
*RC CSRF/MCAUSE_REG/U12:A1 5.118e-03
*RC CSRF/MCAUSE_REG/U7:A1 5.541e-03
*RC CSRF/MCAUSE_REG/U5:A 5.723e-03
*RC CSRF/MM_REG/U9:A 1.056e-02
*RC CSRF/MM_REG/U4:A1 8.558e-03
*RC CSRF/MTVEC_REG/U96:A1 9.037e-03
*RC CSRF/MTVEC_REG/U90:A1 8.366e-03
*RC CSRF/MTVAL_REG/U12:A1 1.086e-02
*RC CSRF/MTVAL_REG/U7:A1 7.911e-03
*RC CSRF/MTVAL_REG/U5:A 1.045e-02
*RC CSRF/MCS/U8:A 8.920e-03
*RC CSRF/MCS/U4:A1 7.954e-03
*RC CSRF/MC/U16:A1 8.035e-03
*RC CSRF/MC/U13:A 5.587e-03
*RC CSRF/MC/U18:A 8.188e-03
*RC CSRF/MC/U17:A 8.171e-03
*RC CSRF/MC/U3:A 4.312e-04
*RC MC/U81:A 9.484e-03
*RC MC/U140:A1 1.019e-02
*RC MC/curr_state_reg\[0\]:D 1.068e-02
*RC IRF/U27:A 4.211e-02
*RC IRF/U71:A 3.428e-02
*RC IRF/U8:A 3.042e-02
*RC IRF/U64:A 3.099e-02
*RC IRF/U10:A 2.720e-02
*RC IRF/U26:A 3.428e-02
*RC IRF/U5:A 3.693e-02
*RC IRF/U37:A 3.693e-02
*RC IRF/U66:A 4.211e-02
*RC IRF/U32:A 3.281e-02
*RC IRF/U15:A 2.707e-02
*RC IRF/U51:A 2.707e-02
*RC IRF/U31:A 2.948e-02
*RC IRF/U67:A 2.948e-02
*RC IRF/U18:A 2.122e-02
*RC IRF/U4:A 2.864e-02
*RC IRF/U38:A 6.894e-03
*RC IRF/U70:A 1.191e-02
*RC IRF/U42:A 1.942e-02
*RC IRF/U58:A 2.340e-02
*RC IRF/U63:A 1.629e-02
*RC IRF/U21:A 1.629e-02
*RC IRF/U9:A 1.191e-02
*RC IRF/U22:A 8.792e-03
*RC IRF/U48:A 6.894e-03
*RC IRF/U20:A 1.607e-02
*RC IRF/U43:A 1.530e-02
*RC IRF/U57:A 1.530e-02
*RC IRF/U11:A 1.293e-02
*RC IRF/U52:A 4.573e-03
*RC IRF/U14:A 7.638e-03
*RC IRF/U49:A 1.687e-02
*RC IRF/U19:A 4.597e-04
*RC REG1/U3:A 4.514e-04
*RC PC/U200:A1 2.272e-03
*RC PC/U7:A 2.706e-03
*END

*R_NET ms_riscv32_mp_rc_in\[63\] 1.854e+00
*DRIVER ms_riscv32_mp_rc_in\[63\]
*CELL NULL
*C2_R1_C1 9.271e-01 2.197e-05 9.271e-01 
*LOADS
*RC CSRF/MC/U1259:A1 2.245e-05
*END

*R_NET ms_riscv32_mp_rc_in\[62\] 2.269e+00
*DRIVER ms_riscv32_mp_rc_in\[62\]
*CELL NULL
*C2_R1_C1 1.135e+00 2.903e-05 1.135e+00 
*LOADS
*RC CSRF/MC/U1258:A1 3.368e-05
*END

*R_NET ms_riscv32_mp_rc_in\[61\] 2.288e+00
*DRIVER ms_riscv32_mp_rc_in\[61\]
*CELL NULL
*C2_R1_C1 1.144e+00 2.841e-05 1.144e+00 
*LOADS
*RC CSRF/MC/U1257:A1 3.313e-05
*END

*R_NET ms_riscv32_mp_rc_in\[60\] 2.718e+00
*DRIVER ms_riscv32_mp_rc_in\[60\]
*CELL NULL
*C2_R1_C1 1.359e+00 3.560e-05 1.359e+00 
*LOADS
*RC CSRF/MC/U1256:A1 4.661e-05
*END

*R_NET ms_riscv32_mp_rc_in\[59\] 2.191e+00
*DRIVER ms_riscv32_mp_rc_in\[59\]
*CELL NULL
*C2_R1_C1 1.095e+00 2.704e-05 1.095e+00 
*LOADS
*RC CSRF/MC/U1255:A1 3.066e-05
*END

*R_NET ms_riscv32_mp_rc_in\[58\] 2.904e+00
*DRIVER ms_riscv32_mp_rc_in\[58\]
*CELL NULL
*C2_R1_C1 1.452e+00 4.005e-05 1.452e+00 
*LOADS
*RC CSRF/MC/U1254:A1 5.492e-05
*END

*R_NET ms_riscv32_mp_rc_in\[57\] 2.729e+00
*DRIVER ms_riscv32_mp_rc_in\[57\]
*CELL NULL
*C2_R1_C1 1.365e+00 3.704e-05 1.365e+00 
*LOADS
*RC CSRF/MC/U1253:A1 4.864e-05
*END

*R_NET ms_riscv32_mp_rc_in\[56\] 2.725e+00
*DRIVER ms_riscv32_mp_rc_in\[56\]
*CELL NULL
*C2_R1_C1 1.362e+00 3.571e-05 1.362e+00 
*LOADS
*RC CSRF/MC/U1252:A1 4.685e-05
*END

*R_NET ms_riscv32_mp_rc_in\[55\] 3.122e+00
*DRIVER ms_riscv32_mp_rc_in\[55\]
*CELL NULL
*C2_R1_C1 1.561e+00 4.371e-05 1.561e+00 
*LOADS
*RC CSRF/MC/U1251:A1 6.313e-05
*END

*R_NET ms_riscv32_mp_rc_in\[54\] 2.597e+00
*DRIVER ms_riscv32_mp_rc_in\[54\]
*CELL NULL
*C2_R1_C1 1.299e+00 3.358e-05 1.299e+00 
*LOADS
*RC CSRF/MC/U1250:A1 4.262e-05
*END

*R_NET ms_riscv32_mp_rc_in\[53\] 2.841e+00
*DRIVER ms_riscv32_mp_rc_in\[53\]
*CELL NULL
*C2_R1_C1 1.421e+00 3.832e-05 1.421e+00 
*LOADS
*RC CSRF/MC/U1249:A1 5.176e-05
*END

*R_NET ms_riscv32_mp_rc_in\[52\] 1.012e+00
*DRIVER ms_riscv32_mp_rc_in\[52\]
*CELL NULL
*C2_R1_C1 5.059e-01 7.101e-06 5.059e-01 
*LOADS
*RC CSRF/MC/U1248:A1 5.261e-06
*END

*R_NET ms_riscv32_mp_rc_in\[51\] 2.623e+00
*DRIVER ms_riscv32_mp_rc_in\[51\]
*CELL NULL
*C2_R1_C1 1.312e+00 3.401e-05 1.312e+00 
*LOADS
*RC CSRF/MC/U1247:A1 4.347e-05
*END

*R_NET ms_riscv32_mp_rc_in\[50\] 2.426e+00
*DRIVER ms_riscv32_mp_rc_in\[50\]
*CELL NULL
*C2_R1_C1 1.213e+00 3.094e-05 1.213e+00 
*LOADS
*RC CSRF/MC/U1246:A1 3.750e-05
*END

*R_NET ms_riscv32_mp_rc_in\[49\] 2.693e+00
*DRIVER ms_riscv32_mp_rc_in\[49\]
*CELL NULL
*C2_R1_C1 1.346e+00 3.519e-05 1.346e+00 
*LOADS
*RC CSRF/MC/U1245:A1 4.579e-05
*END

*R_NET ms_riscv32_mp_rc_in\[48\] 8.162e-01
*DRIVER ms_riscv32_mp_rc_in\[48\]
*CELL NULL
*C2_R1_C1 4.081e-01 3.859e-06 4.081e-01 
*LOADS
*RC CSRF/MC/U1244:A1 2.608e-06
*END

*R_NET ms_riscv32_mp_rc_in\[47\] 8.188e-01
*DRIVER ms_riscv32_mp_rc_in\[47\]
*CELL NULL
*C2_R1_C1 4.094e-01 4.307e-06 4.094e-01 
*LOADS
*RC CSRF/MC/U1243:A1 2.914e-06
*END

*R_NET ms_riscv32_mp_rc_in\[46\] 7.140e-01
*DRIVER ms_riscv32_mp_rc_in\[46\]
*CELL NULL
*C2_R1_C1 3.570e-01 2.185e-06 3.570e-01 
*LOADS
*RC CSRF/MC/U1242:A1 1.402e-06
*END

*R_NET ms_riscv32_mp_rc_in\[45\] 1.124e+00
*DRIVER ms_riscv32_mp_rc_in\[45\]
*CELL NULL
*C2_R1_C1 5.619e-01 9.351e-06 5.619e-01 
*LOADS
*RC CSRF/MC/U1241:A1 7.277e-06
*END

*R_NET ms_riscv32_mp_rc_in\[44\] 6.987e-01
*DRIVER ms_riscv32_mp_rc_in\[44\]
*CELL NULL
*C2_R1_C1 3.494e-01 1.846e-06 3.494e-01 
*LOADS
*RC CSRF/MC/U1240:A1 1.175e-06
*END

*R_NET ms_riscv32_mp_rc_in\[43\] 1.185e+00
*DRIVER ms_riscv32_mp_rc_in\[43\]
*CELL NULL
*C2_R1_C1 5.924e-01 9.973e-06 5.924e-01 
*LOADS
*RC CSRF/MC/U1239:A1 7.964e-06
*END

*R_NET ms_riscv32_mp_rc_in\[42\] 1.698e+00
*DRIVER ms_riscv32_mp_rc_in\[42\]
*CELL NULL
*C2_R1_C1 8.489e-01 1.906e-05 8.489e-01 
*LOADS
*RC CSRF/MC/U1238:A1 1.848e-05
*END

*R_NET ms_riscv32_mp_rc_in\[41\] 9.428e-01
*DRIVER ms_riscv32_mp_rc_in\[41\]
*CELL NULL
*C2_R1_C1 4.714e-01 5.927e-06 4.714e-01 
*LOADS
*RC CSRF/MC/U1237:A1 4.255e-06
*END

*R_NET ms_riscv32_mp_rc_in\[40\] 6.884e-01
*DRIVER ms_riscv32_mp_rc_in\[40\]
*CELL NULL
*C2_R1_C1 3.442e-01 1.673e-06 3.442e-01 
*LOADS
*RC CSRF/MC/U1236:A1 1.059e-06
*END

*R_NET ms_riscv32_mp_rc_in\[39\] 7.380e-01
*DRIVER ms_riscv32_mp_rc_in\[39\]
*CELL NULL
*C2_R1_C1 3.690e-01 2.503e-06 3.690e-01 
*LOADS
*RC CSRF/MC/U1235:A1 1.626e-06
*END

*R_NET ms_riscv32_mp_rc_in\[38\] 1.388e+00
*DRIVER ms_riscv32_mp_rc_in\[38\]
*CELL NULL
*C2_R1_C1 6.939e-01 1.407e-05 6.939e-01 
*LOADS
*RC CSRF/MC/U1234:A1 1.219e-05
*END

*R_NET ms_riscv32_mp_rc_in\[37\] 1.613e+00
*DRIVER ms_riscv32_mp_rc_in\[37\]
*CELL NULL
*C2_R1_C1 8.064e-01 1.748e-05 8.064e-01 
*LOADS
*RC CSRF/MC/U1233:A1 1.645e-05
*END

*R_NET ms_riscv32_mp_rc_in\[36\] 1.669e+00
*DRIVER ms_riscv32_mp_rc_in\[36\]
*CELL NULL
*C2_R1_C1 8.345e-01 1.839e-05 8.345e-01 
*LOADS
*RC CSRF/MC/U1232:A1 1.766e-05
*END

*R_NET ms_riscv32_mp_rc_in\[35\] 9.234e-01
*DRIVER ms_riscv32_mp_rc_in\[35\]
*CELL NULL
*C2_R1_C1 4.617e-01 5.927e-06 4.617e-01 
*LOADS
*RC CSRF/MC/U1231:A1 4.216e-06
*END

*R_NET ms_riscv32_mp_rc_in\[34\] 1.380e+00
*DRIVER ms_riscv32_mp_rc_in\[34\]
*CELL NULL
*C2_R1_C1 6.900e-01 1.328e-05 6.900e-01 
*LOADS
*RC CSRF/MC/U1230:A1 1.147e-05
*END

*R_NET ms_riscv32_mp_rc_in\[33\] 8.312e-01
*DRIVER ms_riscv32_mp_rc_in\[33\]
*CELL NULL
*C2_R1_C1 4.156e-01 4.061e-06 4.156e-01 
*LOADS
*RC CSRF/MC/U1229:A1 2.764e-06
*END

*R_NET ms_riscv32_mp_rc_in\[32\] 1.179e+00
*DRIVER ms_riscv32_mp_rc_in\[32\]
*CELL NULL
*C2_R1_C1 5.894e-01 9.900e-06 5.894e-01 
*LOADS
*RC CSRF/MC/U1228:A1 7.886e-06
*END

*R_NET ms_riscv32_mp_rc_in\[31\] 8.049e-01
*DRIVER ms_riscv32_mp_rc_in\[31\]
*CELL NULL
*C2_R1_C1 4.025e-01 4.129e-06 4.025e-01 
*LOADS
*RC CSRF/MC/U1227:A1 2.775e-06
*END

*R_NET ms_riscv32_mp_rc_in\[30\] 2.010e+00
*DRIVER ms_riscv32_mp_rc_in\[30\]
*CELL NULL
*C2_R1_C1 1.005e+00 2.378e-05 1.005e+00 
*LOADS
*RC CSRF/MC/U1226:A1 2.553e-05
*END

*R_NET ms_riscv32_mp_rc_in\[29\] 2.041e+00
*DRIVER ms_riscv32_mp_rc_in\[29\]
*CELL NULL
*C2_R1_C1 1.020e+00 2.462e-05 1.020e+00 
*LOADS
*RC CSRF/MC/U1225:A1 2.668e-05
*END

*R_NET ms_riscv32_mp_rc_in\[28\] 2.552e+00
*DRIVER ms_riscv32_mp_rc_in\[28\]
*CELL NULL
*C2_R1_C1 1.276e+00 3.364e-05 1.276e+00 
*LOADS
*RC CSRF/MC/U1224:A1 4.219e-05
*END

*R_NET ms_riscv32_mp_rc_in\[27\] 1.972e+00
*DRIVER ms_riscv32_mp_rc_in\[27\]
*CELL NULL
*C2_R1_C1 9.860e-01 2.313e-05 9.860e-01 
*LOADS
*RC CSRF/MC/U1223:A1 2.454e-05
*END

*R_NET ms_riscv32_mp_rc_in\[26\] 2.202e+00
*DRIVER ms_riscv32_mp_rc_in\[26\]
*CELL NULL
*C2_R1_C1 1.101e+00 2.704e-05 1.101e+00 
*LOADS
*RC CSRF/MC/U1222:A1 3.077e-05
*END

*R_NET ms_riscv32_mp_rc_in\[25\] 2.101e+00
*DRIVER ms_riscv32_mp_rc_in\[25\]
*CELL NULL
*C2_R1_C1 1.051e+00 2.529e-05 1.051e+00 
*LOADS
*RC CSRF/MC/U1221:A1 2.792e-05
*END

*R_NET ms_riscv32_mp_rc_in\[24\] 2.145e+00
*DRIVER ms_riscv32_mp_rc_in\[24\]
*CELL NULL
*C2_R1_C1 1.072e+00 2.678e-05 1.072e+00 
*LOADS
*RC CSRF/MC/U1220:A1 2.995e-05
*END

*R_NET ms_riscv32_mp_rc_in\[23\] 1.163e+00
*DRIVER ms_riscv32_mp_rc_in\[23\]
*CELL NULL
*C2_R1_C1 5.817e-01 9.614e-06 5.817e-01 
*LOADS
*RC CSRF/MC/U1219:A1 7.609e-06
*END

*R_NET ms_riscv32_mp_rc_in\[22\] 2.152e+00
*DRIVER ms_riscv32_mp_rc_in\[22\]
*CELL NULL
*C2_R1_C1 1.076e+00 2.614e-05 1.076e+00 
*LOADS
*RC CSRF/MC/U1218:A1 2.930e-05
*END

*R_NET ms_riscv32_mp_rc_in\[21\] 2.667e+00
*DRIVER ms_riscv32_mp_rc_in\[21\]
*CELL NULL
*C2_R1_C1 1.334e+00 3.588e-05 1.334e+00 
*LOADS
*RC CSRF/MC/U1216:A1 4.639e-05
*END

*R_NET ms_riscv32_mp_rc_in\[20\] 7.976e-01
*DRIVER ms_riscv32_mp_rc_in\[20\]
*CELL NULL
*C2_R1_C1 3.988e-01 3.837e-06 3.988e-01 
*LOADS
*RC CSRF/MC/U1213:A1 2.569e-06
*END

*R_NET ms_riscv32_mp_rc_in\[19\] 9.472e-01
*DRIVER ms_riscv32_mp_rc_in\[19\]
*CELL NULL
*C2_R1_C1 4.736e-01 6.424e-06 4.736e-01 
*LOADS
*RC CSRF/MC/U1212:A1 4.621e-06
*END

*R_NET ms_riscv32_mp_rc_in\[18\] 1.114e+00
*DRIVER ms_riscv32_mp_rc_in\[18\]
*CELL NULL
*C2_R1_C1 5.572e-01 9.588e-06 5.572e-01 
*LOADS
*RC CSRF/MC/U1211:A1 7.431e-06
*END

*R_NET ms_riscv32_mp_rc_in\[17\] 9.526e-01
*DRIVER ms_riscv32_mp_rc_in\[17\]
*CELL NULL
*C2_R1_C1 4.763e-01 6.090e-06 4.763e-01 
*LOADS
*RC CSRF/MC/U1210:A1 4.391e-06
*END

*R_NET ms_riscv32_mp_rc_in\[16\] 8.377e-01
*DRIVER ms_riscv32_mp_rc_in\[16\]
*CELL NULL
*C2_R1_C1 4.189e-01 4.170e-06 4.189e-01 
*LOADS
*RC CSRF/MC/U1209:A1 2.847e-06
*END

*R_NET ms_riscv32_mp_rc_in\[15\] 7.694e-01
*DRIVER ms_riscv32_mp_rc_in\[15\]
*CELL NULL
*C2_R1_C1 3.847e-01 3.486e-06 3.847e-01 
*LOADS
*RC CSRF/MC/U1208:A1 2.301e-06
*END

*R_NET ms_riscv32_mp_rc_in\[14\] 9.197e-01
*DRIVER ms_riscv32_mp_rc_in\[14\]
*CELL NULL
*C2_R1_C1 4.599e-01 5.541e-06 4.599e-01 
*LOADS
*RC CSRF/MC/U1207:A1 3.935e-06
*END

*R_NET ms_riscv32_mp_rc_in\[13\] 2.235e+00
*DRIVER ms_riscv32_mp_rc_in\[13\]
*CELL NULL
*C2_R1_C1 1.118e+00 2.753e-05 1.118e+00 
*LOADS
*RC CSRF/MC/U1206:A1 3.163e-05
*END

*R_NET ms_riscv32_mp_rc_in\[12\] 1.578e+00
*DRIVER ms_riscv32_mp_rc_in\[12\]
*CELL NULL
*C2_R1_C1 7.889e-01 2.078e-05 7.889e-01 
*LOADS
*RC CSRF/MC/U1205:A1 1.932e-05
*END

*R_NET ms_riscv32_mp_rc_in\[11\] 1.529e+00
*DRIVER ms_riscv32_mp_rc_in\[11\]
*CELL NULL
*C2_R1_C1 7.647e-01 1.573e-05 7.647e-01 
*LOADS
*RC CSRF/MC/U1204:A1 1.437e-05
*END

*R_NET ms_riscv32_mp_rc_in\[10\] 2.108e+00
*DRIVER ms_riscv32_mp_rc_in\[10\]
*CELL NULL
*C2_R1_C1 1.054e+00 2.559e-05 1.054e+00 
*LOADS
*RC CSRF/MC/U1203:A1 2.831e-05
*END

*R_NET ms_riscv32_mp_rc_in\[9\] 2.692e+00
*DRIVER ms_riscv32_mp_rc_in\[9\]
*CELL NULL
*C2_R1_C1 1.346e+00 3.517e-05 1.346e+00 
*LOADS
*RC CSRF/MC/U1202:A1 4.576e-05
*END

*R_NET ms_riscv32_mp_rc_in\[8\] 2.071e+00
*DRIVER ms_riscv32_mp_rc_in\[8\]
*CELL NULL
*C2_R1_C1 1.035e+00 2.478e-05 1.035e+00 
*LOADS
*RC CSRF/MC/U1201:A1 2.711e-05
*END

*R_NET ms_riscv32_mp_rc_in\[7\] 6.694e-01
*DRIVER ms_riscv32_mp_rc_in\[7\]
*CELL NULL
*C2_R1_C1 3.347e-01 1.357e-06 3.347e-01 
*LOADS
*RC CSRF/MC/U1200:A1 8.503e-07
*END

*R_NET ms_riscv32_mp_rc_in\[6\] 2.154e+00
*DRIVER ms_riscv32_mp_rc_in\[6\]
*CELL NULL
*C2_R1_C1 1.077e+00 2.635e-05 1.077e+00 
*LOADS
*RC CSRF/MC/U1199:A1 2.955e-05
*END

*R_NET ms_riscv32_mp_rc_in\[5\] 3.188e+00
*DRIVER ms_riscv32_mp_rc_in\[5\]
*CELL NULL
*C2_R1_C1 1.594e+00 4.559e-05 1.594e+00 
*LOADS
*RC CSRF/MC/U1197:A1 6.684e-05
*END

*R_NET ms_riscv32_mp_rc_in\[4\] 3.354e+00
*DRIVER ms_riscv32_mp_rc_in\[4\]
*CELL NULL
*C2_R1_C1 1.677e+00 4.858e-05 1.677e+00 
*LOADS
*RC CSRF/MC/U1196:A1 7.392e-05
*END

*R_NET ms_riscv32_mp_rc_in\[3\] 1.324e+00
*DRIVER ms_riscv32_mp_rc_in\[3\]
*CELL NULL
*C2_R1_C1 6.619e-01 1.495e-05 6.619e-01 
*LOADS
*RC CSRF/MC/U1195:A1 1.263e-05
*END

*R_NET ms_riscv32_mp_rc_in\[2\] 1.190e+00
*DRIVER ms_riscv32_mp_rc_in\[2\]
*CELL NULL
*C2_R1_C1 5.951e-01 1.251e-05 5.951e-01 
*LOADS
*RC CSRF/MC/U1194:A1 1.002e-05
*END

*R_NET ms_riscv32_mp_rc_in\[1\] 1.144e+00
*DRIVER ms_riscv32_mp_rc_in\[1\]
*CELL NULL
*C2_R1_C1 5.720e-01 1.154e-05 5.720e-01 
*LOADS
*RC CSRF/MC/U1193:A1 9.054e-06
*END

*R_NET ms_riscv32_mp_rc_in\[0\] 1.056e+00
*DRIVER ms_riscv32_mp_rc_in\[0\]
*CELL NULL
*C2_R1_C1 5.278e-01 9.546e-06 5.278e-01 
*LOADS
*RC CSRF/MC/U1192:A1 7.212e-06
*END

*R_NET ms_riscv32_mp_imaddr_out\[31\] 6.270e+00
*DRIVER PC/i_addr_reg\[31\]:Q
*CELL LATCHX1_LVT
*C2_R1_C1 3.135e+00 1.051e-04 3.135e+00 
*LOADS
*RC ms_riscv32_mp_imaddr_out\[31\] 2.197e-04
*END

*R_NET ms_riscv32_mp_imaddr_out\[30\] 6.175e+00
*DRIVER PC/i_addr_reg\[30\]:Q
*CELL LATCHX1_LVT
*C2_R1_C1 3.087e+00 1.039e-04 3.087e+00 
*LOADS
*RC ms_riscv32_mp_imaddr_out\[30\] 2.138e-04
*END

*R_NET ms_riscv32_mp_imaddr_out\[29\] 6.270e+00
*DRIVER PC/i_addr_reg\[29\]:Q
*CELL LATCHX1_LVT
*C2_R1_C1 3.135e+00 1.053e-04 3.135e+00 
*LOADS
*RC ms_riscv32_mp_imaddr_out\[29\] 2.201e-04
*END

*R_NET ms_riscv32_mp_imaddr_out\[28\] 2.775e+00
*DRIVER PC/i_addr_reg\[28\]:Q
*CELL LATCHX1_LVT
*C2_R1_C1 1.387e+00 4.808e-05 1.387e+00 
*LOADS