*SPEF "1481-1998"
*DESIGN "msrv32_machine_control"
*DATE "Thu Apr 24 10:55:04 2025"
*VENDOR "Synopsys, Inc."
*PROGRAM "icc2 /home/cad/eda/SYNOPSYS/IC2_Compiler/icc2/T-2022.03-SP4/linux64/nwtn/bin/icc2_exec"
*VERSION "T-2022.03-SP4 Aug 31, 2022"
*DESIGN_FLOW "ICC2 SPEF DR"
*DIVIDER /
*DELIMITER :
*BUS_DELIMITER [ ]
*T_UNIT 1 NS
*C_UNIT 1 FF
*R_UNIT 1 OHM
*L_UNIT 1 HENRY

// XY_UNIT 1 UM
// PARASITIC_TECH riscv_MACRO_with_clk at 125.000 degree

*NAME_MAP
*1 clk_in
*2 reset_in
*3 illegal_instr_in
*4 misaligned_load_in
*5 misaligned_store_in
*6 misaligned_instr_in
*7 opcode_6_to_2_in[6]
*8 opcode_6_to_2_in[5]
*9 opcode_6_to_2_in[4]
*10 opcode_6_to_2_in[3]
*11 opcode_6_to_2_in[2]
*12 funct3_in[2]
*13 funct3_in[1]
*14 funct3_in[0]
*15 funct7_in[6]
*16 funct7_in[5]
*17 funct7_in[4]
*18 funct7_in[3]
*19 funct7_in[2]
*20 funct7_in[1]
*21 funct7_in[0]
*22 rs1_addr_in[4]
*23 rs1_addr_in[3]
*24 rs1_addr_in[2]
*25 rs1_addr_in[1]
*26 rs1_addr_in[0]
*27 rs2_addr_in[4]
*28 rs2_addr_in[3]
*29 rs2_addr_in[2]
*30 rs2_addr_in[1]
*31 rs2_addr_in[0]
*32 rd_addr_in[4]
*33 rd_addr_in[3]
*34 rd_addr_in[2]
*35 rd_addr_in[1]
*36 rd_addr_in[0]
*37 e_irq_in
*38 t_irq_in
*39 s_irq_in
*40 mie_in
*41 meie_in
*42 mtie_in
*43 msie_in
*44 meip_in
*45 mtip_in
*46 msip_in
*47 i_or_e_out
*48 set_epc_out
*49 set_cause_out
*50 cause_out[3]
*51 cause_out[2]
*52 cause_out[1]
*53 cause_out[0]
*54 instret_inc_out
*55 mie_clear_out
*56 mie_set_out
*57 misaligned_exception_out
*58 pc_src_out[1]
*59 pc_src_out[0]
*60 flush_out
*61 trap_taken_out
*62 VDD
*63 VSS
*64 misaligned_exception_out_reg
*65 curr_state_reg[0]
*66 curr_state_reg[1]
*67 curr_state_reg[2]
*68 curr_state_reg[3]
*69 i_or_e_out_reg
*70 cause_out_reg[0]
*71 cause_out_reg[2]
*72 cause_out_reg[1]
*73 cause_out_reg[3]
*74 U76
*75 U79
*76 U80
*77 U81
*78 U84
*79 U85
*80 U86
*81 U87
*82 U88
*83 U91
*84 U92
*85 U95
*86 U96
*87 U97
*88 U98
*89 U99
*90 U100
*91 U101
*92 U102
*93 U103
*94 U104
*95 U105
*96 U107
*97 U108
*98 U112
*99 U113
*100 U114
*101 U117
*102 U118
*103 U120
*104 U121
*105 U122
*106 U123
*107 U124
*108 U125
*109 U126
*110 U127
*111 U128
*112 U129
*113 U132
*114 U134
*115 U135
*116 U136
*117 U137
*118 U138
*119 U139
*120 U140
*121 U141
*122 U142
*123 U143
*124 U144
*125 U145
*126 U146
*127 U109
*128 U116
*129 U133
*130 U106
*131 U77
*132 U78
*133 U111
*134 U94
*135 U93
*136 U130
*137 U82
*138 U83
*139 U110
*140 U115
*141 U119
*142 U131
*143 U89
*144 U90
*145 U147
*146 U148
*147 U149
*148 N62
*149 N63
*150 N64
*151 N66
*152 n60
*153 n61
*154 n62
*155 n63
*156 n64
*157 n65
*158 n66
*159 n67
*160 n68
*161 n69
*162 n70
*163 n71
*164 n72
*165 n73
*166 n74
*167 n75
*168 n76
*169 n77
*170 n78
*171 n79
*172 n80
*173 n81
*174 n82
*175 n83
*176 n84
*177 n85
*178 n86
*179 n87
*180 n88
*181 n89
*182 n91
*183 n92
*184 n93
*185 n94
*186 n95
*187 n96
*188 n97
*189 n98
*190 n99
*191 n100
*192 n103
*193 n104
*194 n105
*195 n106
*196 n107
*197 n109
*198 n110
*199 n111
*200 n112
*201 n113
*202 n114
*203 n115
*204 n116
*205 n117
*206 n118
*207 n119
*208 n120
*209 n121
*210 n122
*211 n123
*212 n124
*213 n125
*214 n128
*215 n129
*216 n130
*217 n131
*218 curr_state[3]
*219 curr_state[2]
*220 curr_state[1]
*221 curr_state[0]

*PORTS

*1 I *C 8.388 0.143
*2 I *C 8.996 0.143
*3 I *C 19.332 0.143
*4 I *C 18.724 0.143
*5 I *C 18.116 0.143
*6 I *C 17.508 0.143
*7 I *C 16.900 0.143
*8 I *C 16.292 0.143
*9 I *C 15.684 0.143
*10 I *C 15.076 0.143
*11 I *C 14.468 0.143
*12 I *C 9.604 0.143
*13 I *C 13.860 0.143
*14 I *C 13.252 0.143
*15 I *C 12.644 0.143
*16 I *C 12.036 0.143
*17 I *C 11.428 0.143
*18 I *C 10.820 0.143
*19 I *C 10.212 0.143
*20 I *C 11.124 0.143
*21 I *C 10.516 0.143
*22 I *C 9.908 0.143
*23 I *C 9.300 0.143
*24 I *C 8.692 0.143
*25 I *C 8.084 0.143
*26 I *C 7.476 0.143
*27 I *C 6.868 0.143
*28 I *C 6.260 0.143
*29 I *C 5.652 0.143
*30 I *C 5.044 0.143
*31 I *C 4.436 0.143
*32 I *C 3.828 0.143
*33 I *C 3.220 0.143
*34 I *C 2.612 0.143
*35 I *C 2.004 0.143
*36 I *C 11.732 0.143
*37 I *C 12.340 0.143
*38 I *C 12.948 0.143
*39 I *C 13.556 0.143
*40 I *C 14.164 0.143
*41 I *C 14.772 0.143
*42 I *C 15.380 0.143
*43 I *C 15.988 0.143
*44 I *C 16.596 0.143
*45 I *C 17.204 0.143
*46 I *C 17.812 0.143
*47 O *C 18.420 0.143
*48 O *C 21.193 5.956
*49 O *C 21.193 4.740
*50 O *C 19.028 0.143
*51 O *C 19.636 0.143
*52 O *C 21.193 16.900
*53 O *C 21.193 15.684
*54 O *C 21.193 14.468
*55 O *C 21.193 3.524
*56 O *C 21.193 13.252
*57 O *C 21.193 12.036
*58 O *C 21.193 10.820
*59 O *C 21.193 9.604
*60 O *C 21.193 8.388
*61 O *C 21.193 7.172
*62 I *C 10.668 10.060
*63 I *C 10.668 10.060

*D_NET *61 2.124644 //LENGTH 31.110 LUMPCC 0 DR

*CONN
*I *127:Y O *L 0 *C 3.737 7.554
*P *61 O *L 0 *C 21.078 7.172
*I *116:A2 I *L 0.5761 *C 4.459 13.978
*I *142:A I *L 0.467042 *C 2.187 16.001
*N *61:4 *C 2.006 15.988
*N *61:5 *C 1.865 15.988
*N *61:6 *C 1.852 15.975
*N *61:7 *C 3.524 13.678
*N *61:8 *C 3.524 13.860
*N *61:9 *C 3.524 13.848
*N *61:10 *C 3.510 13.860
*N *61:11 *C 1.866 13.860
*N *61:12 *C 1.852 13.860
*N *61:13 *C 2.321 7.172
*N *61:14 *C 2.308 7.186
*N *61:15 *C 2.308 7.767
*N *61:16 *C 2.295 7.780
*N *61:17 *C 1.866 7.780
*N *61:18 *C 1.852 7.780
*N *61:19 *C 2.004 7.780
*N *61:20 *C 2.004 7.642
*N *61:21 *C 2.004 7.628

*CAP
0 *127:Y 0.001
1 *61 0.5408507
2 *116:A2 0.001
3 *142:A 0.001
4 *61:4 0.009458027
5 *61:5 0.007863901
6 *61:6 0.1108587
7 *61:7 0.01316221
8 *61:8 0.004883645
9 *61:9 0.009789044
10 *61:10 0.06023912
11 *61:11 0.06023912
12 *61:12 0.3807372
13 *61:13 0.5390719
14 *61:14 0.01935333
15 *61:15 0.01935319
16 *61:16 0.01674543
17 *61:17 0.01674533
18 *61:18 0.2752568
19 *61:19 0.02002887
20 *61:20 0.01146229
21 *61:21 0.005545087

*RES
0 *127:Y *61:21 0.01
1 *61:21 *61:20 1
2 *61:20 *61:19 0.2473214
3 *61:5 *61:4 0.2358333
4 *61:6 *61:5 1
5 *61:12 *61:11 0.5
6 *61:12 *61:6 3.775893
7 *61:11 *61:10 2.9375
8 *61:9 *61:8 1
9 *61:9 *61:7 0.2825
10 *61:10 *61:9 0.5
11 *61:8 *116:A2 0.01
12 *61:18 *61:17 0.5
13 *61:18 *61:12 10.85714
14 *61:17 *61:16 0.7660714
15 *61:16 *61:15 0.5
16 *61:15 *61:14 1.0375
17 *61:14 *61:13 0.5
18 *61:13 *61 6.698751
19 *61:4 *142:A 0.01
20 *61:19 *61:18 0.2714286

*END

*D_NET *49 0.757057 //LENGTH 12.600 LUMPCC 0 DR

*CONN
*I *140:Y O *L 0 *C 18.633 12.607
*P *48 O *L 0 *C 21.156 5.956
*P *55 O *L 0 *C 21.156 3.524
*P *49 O *L 0 *C 21.156 4.740
*N *49:4 *C 21.156 3.538
*N *49:5 *C 21.156 4.727
*N *49:6 *C 21.156 4.740
*N *49:7 *C 21.156 4.753
*N *49:8 *C 21.156 5.956
*N *49:9 *C 21.156 12.327
*N *49:10 *C 21.143 12.340
*N *49:11 *C 18.282 12.340
*N *49:12 *C 18.268 12.354
*N *49:13 *C 18.268 12.783
*N *49:14 *C 18.268 12.796

*CAP
0 *140:Y 0.001
1 *48 0.001
2 *55 0.001
3 *49 0.001
4 *49:4 0.04022583
5 *49:5 0.04022583
6 *49:6 0.001
7 *49:7 0.03231276
8 *49:8 0.2157703
9 *49:9 0.1816786
10 *49:10 0.09583617
11 *49:11 0.09583607
12 *49:12 0.02231924
13 *49:13 0.02250415
14 *49:14 0.005347937

*RES
0 *140:Y *49:14 0.01
1 *49:8 *48 0.5
2 *49:8 *49:7 2.147322
3 *49:7 *49:6 0.5
4 *49:4 *55 0.5
5 *49:5 *49:4 0.4246428
6 *49:10 *49:9 0.5
7 *49:9 *49:8 11.37589
8 *49:12 *49:11 0.5
9 *49:11 *49:10 5.108928
10 *49:14 *49:13 1
11 *49:13 *49:12 0.7660714
12 *49:6 *49:5 0.5
13 *49:6 *49 0.01

*END

*D_NET *1 3.405804 //LENGTH 50.102 LUMPCC 0 DR

*CONN
*P *1 I *L 0 *C 8.388 0.258
*I *64:CLK I *L 0.519192 *C 14.924 11.580
*I *69:CLK I *L 0.519192 *C 14.195 11.904
*I *72:CLK I *L 0.519192 *C 13.708 18.268
*I *70:CLK I *L 0.519192 *C 13.708 15.228
*I *71:CLK I *L 0.519192 *C 18.420 8.236
*I *73:CLK I *L 0.519192 *C 18.420 8.540
*I *68:CLK I *L 0.519192 *C 7.020 14.924
*I *67:CLK I *L 0.694077 *C 6.716 18.268
*I *66:CLK I *L 0.694077 *C 2.460 18.268
*I *65:CLK I *L 0.519192 *C 6.595 11.904
*N *1:11 *C 7.020 11.884
*N *1:12 *C 7.020 11.872
*N *1:13 *C 7.020 11.732
*N *1:14 *C 7.033 11.732
*N *1:15 *C 2.460 18.256
*N *1:16 *C 2.460 18.116
*N *1:17 *C 2.474 18.116
*N *1:18 *C 6.716 18.256
*N *1:19 *C 6.716 18.116
*N *1:20 *C 6.716 18.116
*N *1:21 *C 7.159 18.116
*N *1:22 *C 7.172 18.102
*N *1:23 *C 7.020 14.912
*N *1:24 *C 7.020 14.772
*N *1:25 *C 7.020 14.772
*N *1:26 *C 7.160 14.772
*N *1:27 *C 7.172 14.772
*N *1:28 *C 7.172 11.745
*N *1:29 *C 7.186 11.732
*N *1:30 *C 8.375 11.732
*N *1:31 *C 8.388 11.719
*N *1:32 *C 18.420 8.527
*N *1:33 *C 18.420 8.250
*N *1:34 *C 18.420 8.097
*N *1:35 *C 18.407 8.084
*N *1:36 *C 13.708 15.216
*N *1:37 *C 13.708 15.076
*N *1:38 *C 13.721 15.076
*N *1:39 *C 13.708 18.255
*N *1:40 *C 13.708 17.218
*N *1:41 *C 13.708 17.204
*N *1:42 *C 13.848 17.204
*N *1:43 *C 13.860 17.191
*N *1:44 *C 13.860 15.090
*N *1:45 *C 13.873 15.076
*N *1:46 *C 14.455 15.076
*N *1:47 *C 14.468 15.062
*N *1:48 *C 14.316 11.884
*N *1:49 *C 14.316 11.884
*N *1:50 *C 14.316 11.732
*N *1:51 *C 14.316 11.732
*N *1:52 *C 14.456 11.732
*N *1:53 *C 14.468 11.732
*N *1:54 *C 14.772 11.732
*N *1:55 *C 14.924 11.568
*N *1:56 *C 14.924 11.428
*N *1:57 *C 14.912 11.428
*N *1:58 *C 14.772 11.428
*N *1:59 *C 14.772 11.428
*N *1:60 *C 14.772 8.098
*N *1:61 *C 14.772 8.084
*N *1:62 *C 8.402 8.084
*N *1:63 *C 8.388 8.084

*CAP
0 *1 0.2946601
1 *64:CLK 0.001
2 *69:CLK 0.001
3 *72:CLK 0.001
4 *70:CLK 0.001
5 *71:CLK 0.001
6 *73:CLK 0.001
7 *68:CLK 0.001
8 *67:CLK 0.001
9 *66:CLK 0.001
10 *65:CLK 0.001
11 *1:11 0.008363751
12 *1:12 0.009927694
13 *1:13 0.009742786
14 *1:14 0.00815411
15 *1:15 0.006025583
16 *1:16 0.007169115
17 *1:17 0.1312411
18 *1:18 0.006425119
19 *1:19 0.007568651
20 *1:20 0.1479425
21 *1:21 0.01492254
22 *1:22 0.1002125
23 *1:23 0.007352442
24 *1:24 0.008495972
25 *1:25 0.007918715
26 *1:26 0.007918816
27 *1:27 0.1926198
28 *1:28 0.09062842
29 *1:29 0.05732711
30 *1:30 0.04739397
31 *1:31 0.1251757
32 *1:32 0.01199441
33 *1:33 0.0215233
34 *1:34 0.007749861
35 *1:35 0.1335081
36 *1:36 0.007800931
37 *1:37 0.008944462
38 *1:38 0.007709534
39 *1:39 0.03834001
40 *1:40 0.03948354
41 *1:41 0.008145384
42 *1:42 0.008145485
43 *1:43 0.06631507
44 *1:44 0.06631507
45 *1:45 0.03384374
46 *1:46 0.02435517
47 *1:47 0.1078358
48 *1:48 0.007349563
49 *1:49 0.007198443
50 *1:50 0.007013536
51 *1:51 0.008397525
52 *1:52 0.008397627
53 *1:53 0.1185521
54 *1:54 0.02209506
55 *1:55 0.007288971
56 *1:56 0.008432503
57 *1:57 0.008715991
58 *1:58 0.008716092
59 *1:59 0.1196915
60 *1:60 0.1083127
61 *1:61 0.3909487
62 *1:62 0.2556616
63 *1:63 0.4198359

*RES
0 *1 *1:63 13.975
1 *1:32 *73:CLK 1
2 *1:33 *71:CLK 1
3 *1:33 *1:32 0.4946429
4 *1:34 *1:33 0.255
5 *1:35 *1:34 0.5
6 *1:61 *1:60 0.5
7 *1:61 *1:35 6.490179
8 *1:60 *1:59 5.947322
9 *1:58 *1:57 0.2325
10 *1:59 *1:58 0.5
11 *1:59 *1:54 0.5428572
12 *1:56 *1:55 0.2325
13 *1:57 *1:56 0.5
14 *1:55 *64:CLK 1
15 *1:52 *1:51 0.2325
16 *1:53 *1:52 0.5
17 *1:53 *1:47 5.947322
18 *1:50 *1:49 0.2533333
19 *1:51 *1:50 0.5
20 *1:48 *69:CLK 0.01
21 *1:49 *1:48 1
22 *1:46 *1:45 1.0375
23 *1:47 *1:46 0.5
24 *1:37 *1:36 0.2325
25 *1:38 *1:37 0.5
26 *1:36 *70:CLK 1
27 *1:45 *1:44 0.5
28 *1:45 *1:38 0.255
29 *1:44 *1:43 3.751786
30 *1:42 *1:41 0.2325
31 *1:43 *1:42 0.5
32 *1:40 *1:39 1.851786
33 *1:41 *1:40 0.5
34 *1:39 *72:CLK 1
35 *1:62 *1:61 11.37589
36 *1:63 *1:62 0.5
37 *1:63 *1:31 6.49018
38 *1:30 *1:29 2.123214
39 *1:31 *1:30 0.5
40 *1:29 *1:28 0.5
41 *1:29 *1:14 0.255
42 *1:28 *1:27 5.404464
43 *1:13 *1:12 0.2325
44 *1:14 *1:13 0.5
45 *1:11 *65:CLK 0.01
46 *1:12 *1:11 1
47 *1:26 *1:25 0.2325
48 *1:27 *1:26 0.5
49 *1:27 *1:22 5.947322
50 *1:24 *1:23 0.2325
51 *1:25 *1:24 0.5
52 *1:23 *68:CLK 1
53 *1:21 *1:20 0.7901786
54 *1:22 *1:21 0.5
55 *1:19 *1:18 0.2325
56 *1:20 *1:19 0.5
57 *1:20 *1:17 7.575893
58 *1:18 *67:CLK 1
59 *1:16 *1:15 0.2325
60 *1:17 *1:16 0.5
61 *1:15 *66:CLK 1
62 *1:54 *1:53 0.5428572

*END

*D_NET *2 1.67136 //LENGTH 18.649 LUMPCC 0 DR

*CONN
*P *2 I *L 0 *C 8.996 0.258
*I *137:A I *L 0.467042 *C 5.502 12.644
*I *65:D I *L 0.416853 *C 6.291 12.763
*I *119:A1 I *L 0.484201 *C 6.139 10.819
*I *119:A3 I *L 0.539281 *C 6.694 11.051
*N *2:5 *C 5.500 10.820
*N *2:6 *C 5.500 10.834
*N *2:7 *C 5.500 11.111
*N *2:8 *C 5.514 11.124
*N *2:9 *C 6.108 11.124
*N *2:10 *C 6.107 11.124
*N *2:11 *C 5.941 12.644
*N *2:12 *C 6.716 12.796
*N *2:13 *C 6.716 12.784
*N *2:14 *C 6.716 12.644
*N *2:15 *C 6.703 12.644
*N *2:16 *C 5.970 12.644
*N *2:17 *C 5.956 12.631
*N *2:18 *C 5.956 11.124
*N *2:19 *C 5.956 11.124
*N *2:20 *C 8.071 11.124
*N *2:21 *C 8.084 11.111
*N *2:22 *C 8.084 0.497
*N *2:23 *C 8.098 0.484
*N *2:24 *C 8.982 0.484
*N *2:25 *C 8.996 0.471

*CAP
0 *2 0.01406273
1 *137:A 0.0258658
2 *65:D 0.001
3 *119:A1 0.001
4 *119:A3 0.001
5 *2:5 0.004399953
6 *2:6 0.02403273
7 *2:7 0.02384782
8 *2:8 0.02041758
9 *2:9 0.004739821
10 *2:10 0.005666632
11 *2:11 0.02427167
12 *2:12 0.006037346
13 *2:13 0.008629343
14 *2:14 0.008444436
15 *2:15 0.02542248
16 *2:16 0.02542248
17 *2:17 0.05913737
18 *2:18 0.06799226
19 *2:19 0.1157001
20 *2:20 0.09350351
21 *2:21 0.5086833
22 *2:22 0.5086833
23 *2:23 0.04055776
24 *2:24 0.04055786
25 *2:25 0.01228379

*RES
0 *2 *2:25 0.3794643
1 *2:9 *119:A1 0.01
2 *2:9 *119:A3 0.01
3 *2:10 *2:9 1
4 *2:21 *2:20 0.5
5 *2:20 *2:19 3.775893
6 *2:22 *2:21 18.95179
7 *2:23 *2:22 0.5
8 *2:24 *2:23 1.580357
9 *2:25 *2:24 0.5
10 *2:17 *2:16 0.5
11 *2:17 *2:11 1
12 *2:16 *2:15 1.308929
13 *2:14 *2:13 0.2325
14 *2:15 *2:14 0.5
15 *2:13 *2:12 1
16 *2:18 *2:17 2.690179
17 *2:18 *2:10 0.2696429
18 *2:19 *2:18 0.5
19 *2:19 *2:8 0.7901786
20 *2:7 *2:6 0.4946429
21 *2:8 *2:7 0.5
22 *2:6 *2:5 1
23 *2:11 *137:A 0.8790001
24 *2:11 *65:D 0.01

*END

*D_NET *3 1.368006 //LENGTH 17.096 LUMPCC 0 DR

*CONN
*P *3 I *L 0 *C 19.332 0.258
*I *78:A2 I *L 0.488382 *C 10.846 5.988
*I *122:A3 I *L 0.548175 *C 13.428 6.868
*I *99:A2 I *L 0.5761 *C 9.171 7.290
*N *3:4 *C 11.250 7.172
*N *3:5 *C 11.415 7.172
*N *3:6 *C 11.428 7.159
*N *3:7 *C 11.428 6.564
*N *3:8 *C 11.428 6.564
*N *3:9 *C 10.518 4.132
*N *3:10 *C 10.516 4.106
*N *3:11 *C 10.516 3.538
*N *3:12 *C 10.530 3.524
*N *3:13 *C 11.415 3.524
*N *3:14 *C 11.428 3.524
*N *3:15 *C 11.428 0.497
*N *3:16 *C 11.442 0.484
*N *3:17 *C 19.319 0.484
*N *3:18 *C 19.332 0.471

*CAP
0 *3 0.01432768
1 *78:A2 0.001
2 *122:A3 0.001
3 *99:A2 0.001
4 *3:4 0.01133986
5 *3:5 0.009745729
6 *3:6 0.02856584
7 *3:7 0.004521466
8 *3:8 0.168754
9 *3:9 0.01202991
10 *3:10 0.02669517
11 *3:11 0.0278387
12 *3:12 0.04258265
13 *3:13 0.04258265
14 *3:14 0.265099
15 *3:15 0.1249108
16 *3:16 0.2867319
17 *3:17 0.286732
18 *3:18 0.01254875

*RES
0 *3 *3:18 0.3794643
1 *3:7 *78:A2 0.01
2 *3:7 *122:A3 0.01
3 *3:8 *3:7 1
4 *3:8 *3:6 1.061607
5 *3:15 *3:14 5.404464
6 *3:16 *3:15 0.5
7 *3:17 *3:16 14.06607
8 *3:18 *3:17 0.5
9 *3:5 *3:4 0.2758334
10 *3:6 *3:5 1
11 *3:14 *3:13 0.5
12 *3:14 *3:8 5.428572
13 *3:13 *3:12 1.580357
14 *3:11 *3:10 1.015179
15 *3:12 *3:11 0.5
16 *3:10 *3:9 0.5
17 *3:4 *99:A2 0.01

*END

*D_NET *4 0.5395833 //LENGTH 5.983 LUMPCC 0 DR

*CONN
*P *4 I *L 0 *C 18.724 0.258
*I *80:A1 I *L 0.468437 *C 17.941 5.912
*N *4:2 *C 18.876 5.804
*N *4:3 *C 18.876 5.792
*N *4:4 *C 18.876 5.652
*N *4:5 *C 18.864 5.652
*N *4:6 *C 18.724 5.652
*N *4:7 *C 18.724 5.639

*CAP
0 *4 0.2471258
1 *80:A1 0.001
2 *4:2 0.004695409
3 *4:3 0.01119818
4 *4:4 0.01101327
5 *4:5 0.009601789
6 *4:6 0.00960189
7 *4:7 0.2453469

*RES
0 *4 *4:7 9.608037
1 *4:2 *80:A1 0.01
2 *4:3 *4:2 1
3 *4:4 *4:3 0.2325
4 *4:5 *4:4 0.5
5 *4:6 *4:5 0.2325
6 *4:7 *4:6 0.5

*END

*D_NET *5 1.248497 //LENGTH 14.620 LUMPCC 0 DR

*CONN
*P *5 I *L 0 *C 18.116 0.258
*I *122:A1 I *L 0.501685 *C 12.971 7.476
*I *80:A2 I *L 0.488382 *C 17.686 5.988
*N *5:3 *C 18.574 5.956
*N *5:4 *C 18.572 5.930
*N *5:5 *C 18.572 5.058
*N *5:6 *C 18.559 5.044
*N *5:7 *C 10.972 5.956
*N *5:8 *C 10.972 5.942
*N *5:9 *C 10.972 5.058
*N *5:10 *C 10.986 5.044
*N *5:11 *C 18.116 5.044
*N *5:12 *C 18.116 5.030

*CAP
0 *5 0.2064641
1 *122:A1 0.001
2 *80:A2 0.001
3 *5:3 0.01101275
4 *5:4 0.03824827
5 *5:5 0.03939181
6 *5:6 0.01863531
7 *5:7 0.007133597
8 *5:8 0.05606456
9 *5:9 0.05587965
10 *5:10 0.2942839
11 *5:11 0.3146983
12 *5:12 0.2046852

*RES
0 *5 *5:12 8.522323
1 *5:5 *5:4 1.558036
2 *5:6 *5:5 0.5
3 *5:3 *80:A2 0.01
4 *5:4 *5:3 0.5
5 *5:11 *5:10 12.73304
6 *5:11 *5:6 0.7901786
7 *5:12 *5:11 0.5
8 *5:9 *5:8 1.580357
9 *5:10 *5:9 0.5
10 *5:7 *122:A1 0.01
11 *5:8 *5:7 1

*END

*D_NET *6 1.43433 //LENGTH 17.857 LUMPCC 0 DR

*CONN
*P *6 I *L 0 *C 17.508 0.258
*I *136:A1 I *L 0.416878 *C 12.523 5.957
*I *99:A1 I *L 0.532953 *C 9.025 7.446
*I *78:A1 I *L 0.468437 *C 11.101 5.912
*N *6:4 *C 10.820 4.284
*N *6:5 *C 10.820 4.298
*N *6:6 *C 10.820 7.463
*N *6:7 *C 10.834 7.476
*N *6:8 *C 11.428 7.658
*N *6:9 *C 11.428 7.476
*N *6:10 *C 11.428 7.489
*N *6:11 *C 11.428 7.476
*N *6:12 *C 12.948 7.294
*N *6:13 *C 12.948 7.476
*N *6:14 *C 12.948 7.464
*N *6:15 *C 12.948 7.476
*N *6:16 *C 17.495 7.476
*N *6:17 *C 17.508 7.463

*CAP
0 *6 0.2733665
1 *136:A1 0.001
2 *99:A1 0.001
3 *78:A1 0.001
4 *6:4 0.007870089
5 *6:5 0.160547
6 *6:6 0.1603621
7 *6:7 0.02491952
8 *6:8 0.01319975
9 *6:9 0.004521466
10 *6:10 0.009826594
11 *6:11 0.08575907
12 *6:12 0.01560526
13 *6:13 0.004298081
14 *6:14 0.0122321
15 *6:15 0.224037
16 *6:16 0.1631975
17 *6:17 0.2715876

*RES
0 *6 *6:17 12.86518
1 *6:16 *6:15 8.118751
2 *6:17 *6:16 0.5
3 *6:14 *6:13 1
4 *6:14 *6:12 0.2825
5 *6:15 *6:14 0.5
6 *6:15 *6:11 2.714286
7 *6:13 *136:A1 0.01
8 *6:10 *6:9 1
9 *6:10 *6:8 0.2825
10 *6:11 *6:10 0.5
11 *6:11 *6:7 1.061607
12 *6:9 *99:A1 0.01
13 *6:6 *6:5 5.651786
14 *6:7 *6:6 0.5
15 *6:4 *78:A1 0.01
16 *6:5 *6:4 1

*END

*D_NET *7 0.7809402 //LENGTH 8.847 LUMPCC 0 DR

*CONN
*P *7 I *L 0 *C 16.900 0.272
*I *95:A1 I *L 0.362696 *C 11.397 2.308
*N *7:2 *C 12.492 4.436
*N *7:3 *C 12.492 4.423
*N *7:4 *C 12.492 1.106
*N *7:5 *C 12.506 1.092
*N *7:6 *C 16.887 1.092
*N *7:7 *C 16.900 1.079

*CAP
0 *7 0.04140528
1 *95:A1 0.001
2 *7:2 0.00473825
3 *7:3 0.1606651
4 *7:4 0.1604802
5 *7:5 0.1865125
6 *7:6 0.1865126
7 *7:7 0.03962634

*RES
0 *7 *7:7 1.440179
1 *7:2 *95:A1 0.01
2 *7:3 *7:2 1
3 *7:4 *7:3 5.923214
4 *7:5 *7:4 0.5
5 *7:6 *7:5 7.823215
6 *7:7 *7:6 0.5

*END

*D_NET *8 1.013811 //LENGTH 12.064 LUMPCC 0 DR

*CONN
*P *8 I *L 0 *C 16.292 0.180
*I *130:A1 I *L 0.610599 *C 12.917 4.132
*N *8:2 *C 16.110 0.180
*N *8:3 *C 16.292 0.362
*N *8:4 *C 9.300 4.132
*N *8:5 *C 9.300 4.119
*N *8:6 *C 9.300 3.524
*N *8:7 *C 9.148 3.524
*N *8:8 *C 9.148 0.194
*N *8:9 *C 9.163 0.180
*N *8:10 *C 16.277 0.180
*N *8:11 *C 16.292 0.193
*N *8:12 *C 16.280 0.180

*CAP
0 *8 0.001
1 *130:A1 0.001
2 *8:2 0.0114721
3 *8:3 0.01009614
4 *8:4 0.003922252
5 *8:5 0.03368595
6 *8:6 0.0424135
7 *8:7 0.1916821
8 *8:8 0.1829545
9 *8:9 0.2604657
10 *8:10 0.2604657
11 *8:11 0.006722976
12 *8:12 0.007930179

*RES
0 *8 *8:12 0.5
1 *8:4 *130:A1 0.01
2 *8:5 *8:4 1
3 *8:9 *8:8 1
4 *8:8 *8:7 5.947322
5 *8:10 *8:9 14.228
6 *8:11 *8:10 1
7 *8:11 *8:3 0.2825
8 *8:12 *8:11 0.5
9 *8:12 *8:2 0.2825
10 *8:7 *8:6 0.2714286
11 *8:6 *8:5 1.061607

*END

*D_NET *9 0.742882 //LENGTH 7.609 LUMPCC 0 DR

*CONN
*P *9 I *L 0 *C 15.684 0.272
*I *95:A2 I *L 0.366224 *C 11.549 2.612
*N *9:2 *C 12.644 4.132
*N *9:3 *C 12.644 4.284
*N *9:4 *C 12.781 4.284
*N *9:5 *C 12.796 4.271
*N *9:6 *C 12.796 1.409
*N *9:7 *C 12.809 1.396
*N *9:8 *C 15.671 1.396
*N *9:9 *C 15.684 1.383

*CAP
0 *9 0.05541359
1 *95:A2 0.001
2 *9:2 0.009868345
3 *9:3 0.02083702
4 *9:4 0.009374551
5 *9:5 0.1649024
6 *9:6 0.1647175
7 *9:7 0.131567
8 *9:8 0.131567
9 *9:9 0.05363466

*RES
0 *9 *9:9 1.983036
1 *9:4 *9:3 0.274
2 *9:5 *9:4 1
3 *9:6 *9:5 5.108929
4 *9:7 *9:6 0.5
5 *9:8 *9:7 5.108929
6 *9:9 *9:8 0.5
7 *9:3 *9:2 0.304
8 *9:2 *95:A2 0.01

*END

*D_NET *10 0.3934059 //LENGTH 4.391 LUMPCC 0 DR

*CONN
*P *10 I *L 0 *C 15.076 0.258
*I *92:A4 I *L 0.429469 *C 13.504 2.612
*N *10:2 *C 13.556 2.430
*N *10:3 *C 13.556 2.612
*N *10:4 *C 13.556 2.599
*N *10:5 *C 13.570 2.612
*N *10:6 *C 15.062 2.612
*N *10:7 *C 15.076 2.599

*CAP
0 *10 0.1115762
1 *92:A4 0.008693531
2 *10:2 0.01170922
3 *10:3 0.007099404
4 *10:4 0.008336063
5 *10:5 0.06809705
6 *10:6 0.06809715
7 *10:7 0.1097973

*RES
0 *10 *10:7 4.179464
1 *10:3 *92:A4 0.09166668
2 *10:4 *10:3 1
3 *10:4 *10:2 0.2825
4 *10:5 *10:4 0.5
5 *10:6 *10:5 2.666071
6 *10:7 *10:6 0.5

*END

*D_NET *11 0.3067637 //LENGTH 3.394 LUMPCC 0 DR

*CONN
*P *11 I *L 0 *C 14.468 0.258
*I *92:A1 I *L 0.416334 *C 13.989 2.723
*N *11:2 *C 14.164 2.764
*N *11:3 *C 14.164 2.764
*N *11:4 *C 14.164 2.904
*N *11:5 *C 14.178 2.916
*N *11:6 *C 14.455 2.916
*N *11:7 *C 14.468 2.903

*CAP
0 *11 0.1254808
1 *92:A1 0.001
2 *11:2 0.005297056
3 *11:3 0.01136324
4 *11:4 0.01117834
5 *11:5 0.01437114
6 *11:6 0.01437124
7 *11:7 0.1237019

*RES
0 *11 *11:7 4.722322
1 *11:2 *92:A1 0.01
2 *11:3 *11:2 1
3 *11:4 *11:3 0.2325
4 *11:5 *11:4 0.5
5 *11:6 *11:5 0.4946429
6 *11:7 *11:6 0.5

*END

*D_NET *12 0.8389699 //LENGTH 10.229 LUMPCC 0 DR

*CONN
*P *12 I *L 0 *C 9.604 0.258
*I *93:A1 I *L 0.416334 *C 2.156 2.764
*N *12:2 *C 2.156 2.751
*N *12:3 *C 2.156 2.321
*N *12:4 *C 2.170 2.308
*N *12:5 *C 9.591 2.308
*N *12:6 *C 9.604 2.295

*CAP
0 *12 0.08833776
1 *93:A1 0.001
2 *12:2 0.02344695
3 *12:3 0.02459049
4 *12:4 0.3075179
5 *12:5 0.307518
6 *12:6 0.08655883

*RES
0 *12 *12:6 3.636607
1 *12:2 *93:A1 1
2 *12:3 *12:2 0.7660714
3 *12:4 *12:3 0.5
4 *12:5 *12:4 13.25179
5 *12:6 *12:5 0.5

*END

*D_NET *13 0.3260463 //LENGTH 3.673 LUMPCC 0 DR

*CONN
*P *13 I *L 0 *C 13.860 0.258
*I *92:A3 I *L 0.457554 *C 13.680 2.490
*N *13:2 *C 13.678 2.916
*N *13:3 *C 13.860 2.308
*N *13:4 *C 13.860 2.321
*N *13:5 *C 13.860 2.903
*N *13:6 *C 13.848 2.916
*N *13:7 *C 13.860 2.903

*CAP
0 *13 0.1181349
1 *92:A3 0.001
2 *13:2 0.01121511
3 *13:3 0.005665806
4 *13:4 0.03310114
5 *13:5 0.03291623
6 *13:6 0.007657145
7 *13:7 0.1163559

*RES
0 *13 *13:7 4.722322
1 *13:3 *92:A3 0.01
2 *13:4 *13:3 1
3 *13:5 *13:4 1.0375
4 *13:6 *13:5 0.5
5 *13:6 *13:2 0.2825
6 *13:7 *13:6 0.5

*END

*D_NET *14 0.9766209 //LENGTH 13.474 LUMPCC 0 DR

*CONN
*P *14 I *L 0 *C 13.252 0.258
*I *93:A4 I *L 0.429469 *C 2.764 2.612
*N *14:2 *C 2.764 2.430
*N *14:3 *C 2.764 2.599
*N *14:4 *C 2.764 2.612
*N *14:5 *C 2.904 2.612
*N *14:6 *C 2.916 2.599
*N *14:7 *C 2.916 1.714
*N *14:8 *C 2.929 1.700
*N *14:9 *C 13.239 1.700
*N *14:10 *C 13.252 1.687

*CAP
0 *14 0.0692086
1 *93:A4 0.001
2 *14:2 0.01323471
3 *14:3 0.00853311
4 *14:4 0.007991716
5 *14:5 0.007991817
6 *14:6 0.03191575
7 *14:7 0.03191589
8 *14:8 0.3686997
9 *14:9 0.3686997
10 *14:10 0.0674298

*RES
0 *14 *14:10 2.550893
1 *14:3 *93:A4 1
2 *14:3 *14:2 0.2825
3 *14:4 *14:3 0.5
4 *14:5 *14:4 0.2325
5 *14:6 *14:5 0.5
6 *14:7 *14:6 1.580357
7 *14:8 *14:7 0.5
8 *14:10 *14:9 0.5
9 *14:9 *14:8 3.681786

*END

*D_NET *15 0.9045187 //LENGTH 11.954 LUMPCC 0 DR

*CONN
*P *15 I *L 0 *C 12.644 0.258
*I *90:A1 I *L 0.416334 *C 4.307 2.723
*N *15:2 *C 3.950 2.916
*N *15:3 *C 4.132 2.764
*N *15:4 *C 4.132 2.764
*N *15:5 *C 4.132 2.904
*N *15:6 *C 4.120 2.916
*N *15:7 *C 4.132 2.903
*N *15:8 *C 4.132 2.321
*N *15:9 *C 4.146 2.308
*N *15:10 *C 12.631 2.308
*N *15:11 *C 12.644 2.295

*CAP
0 *15 0.09581824
1 *90:A1 0.001
2 *15:2 0.01138534
3 *15:3 0.005230333
4 *15:4 0.01083799
5 *15:5 0.01065308
6 *15:6 0.007827378
7 *15:7 0.0301264
8 *15:8 0.03012655
9 *15:9 0.3037369
10 *15:10 0.3037369
11 *15:11 0.09403946

*RES
0 *15 *15:11 3.636607
1 *15:3 *90:A1 0.01
2 *15:4 *15:3 1
3 *15:5 *15:4 0.2325
4 *15:6 *15:5 0.5
5 *15:6 *15:2 0.2825
6 *15:7 *15:6 0.5
7 *15:8 *15:7 1.0375
8 *15:9 *15:8 0.5
9 *15:11 *15:10 0.5
10 *15:10 *15:9 3.030357

*END

*D_NET *16 0.5478274 //LENGTH 6.277 LUMPCC 0 DR

*CONN
*P *16 I *L 0 *C 12.036 0.258
*I *91:A4 I *L 0.429469 *C 9.172 2.642
*N *16:2 *C 8.996 2.612
*N *16:3 *C 8.996 2.626
*N *16:4 *C 8.996 2.903
*N *16:5 *C 9.010 2.916
*N *16:6 *C 12.023 2.916
*N *16:7 *C 12.036 2.903

*CAP
0 *16 0.1181694
1 *91:A4 0.001
2 *16:2 0.007757315
3 *16:3 0.02404489
4 *16:4 0.02385998
5 *16:5 0.1283026
6 *16:6 0.1283028
7 *16:7 0.1163904

*RES
0 *16 *16:7 4.722322
1 *16:2 *91:A4 0.01
2 *16:3 *16:2 1
3 *16:4 *16:3 0.4946429
4 *16:5 *16:4 0.5
5 *16:6 *16:5 5.380358
6 *16:7 *16:6 0.5

*END

*D_NET *17 0.9547118 //LENGTH 14.035 LUMPCC 0 DR

*CONN
*P *17 I *L 0 *C 11.428 0.258
*I *113:A2 I *L 0.55521 *C 2.581 4.284
*I *96:A1 I *L 0.416334 *C 4.869 4.021
*N *17:3 *C 4.132 3.980
*N *17:4 *C 4.132 3.994
*N *17:5 *C 4.132 4.423
*N *17:6 *C 4.119 4.436
*N *17:7 *C 3.068 4.254
*N *17:8 *C 3.068 4.436
*N *17:9 *C 3.068 4.424
*N *17:10 *C 3.082 4.436
*N *17:11 *C 3.828 4.436
*N *17:12 *C 3.828 4.423
*N *17:13 *C 3.828 3.538
*N *17:14 *C 3.842 3.524
*N *17:15 *C 11.415 3.524
*N *17:16 *C 11.428 3.510

*CAP
0 *17 0.1311184
1 *113:A2 0.001
2 *96:A1 0.001
3 *17:3 0.007437538
4 *17:4 0.02369025
5 *17:5 0.02350534
6 *17:6 0.01288351
7 *17:7 0.01412337
8 *17:8 0.004697188
9 *17:9 0.01075021
10 *17:10 0.02969402
11 *17:11 0.04435666
12 *17:12 0.03313842
13 *17:13 0.03313857
14 *17:14 0.2274193
15 *17:15 0.2274193
16 *17:16 0.1293397

*RES
0 *17 *17:16 5.808036
1 *17:5 *17:4 0.7660714
2 *17:6 *17:5 0.5
3 *17:3 *96:A1 0.01
4 *17:4 *17:3 1
5 *17:11 *17:10 1.333036
6 *17:11 *17:6 0.5187501
7 *17:12 *17:11 0.5
8 *17:13 *17:12 1.580357
9 *17:14 *17:13 0.5
10 *17:16 *17:15 0.5
11 *17:15 *17:14 2.704643
12 *17:9 *17:8 1
13 *17:9 *17:7 0.2825001
14 *17:10 *17:9 0.5
15 *17:8 *113:A2 0.01

*END

*D_NET *18 1.022153 //LENGTH 13.101 LUMPCC 0 DR

*CONN
*P *18 I *L 0 *C 10.820 0.258
*I *96:A3 I *L 0.457554 *C 4.484 4.436
*I *113:A3 I *L 0.519105 *C 2.339 4.284
*N *18:3 *C 3.220 4.132
*N *18:4 *C 3.220 4.119
*N *18:5 *C 3.220 3.538
*N *18:6 *C 3.234 3.524
*N *18:7 *C 4.436 4.436
*N *18:8 *C 4.436 4.423
*N *18:9 *C 4.436 3.538
*N *18:10 *C 4.436 3.524
*N *18:11 *C 4.727 3.524
*N *18:12 *C 4.740 3.510
*N *18:13 *C 4.740 1.106
*N *18:14 *C 4.753 1.092
*N *18:15 *C 10.806 1.092
*N *18:16 *C 10.820 1.079

*CAP
0 *18 0.04270687
1 *96:A3 0.007812472
2 *113:A3 0.001
3 *18:3 0.004457748
4 *18:4 0.02851324
5 *18:5 0.02832833
6 *18:6 0.04343815
7 *18:7 0.006218345
8 *18:8 0.04728681
9 *18:9 0.0471019
10 *18:10 0.05626132
11 *18:11 0.01104425
12 *18:12 0.1134217
13 *18:13 0.1134219
14 *18:14 0.2151058
15 *18:15 0.2151058
16 *18:16 0.04092809

*RES
0 *18 *18:16 1.465179
1 *18:11 *18:10 0.5187501
2 *18:12 *18:11 0.5
3 *18:13 *18:12 4.294643
4 *18:14 *18:13 0.5
5 *18:16 *18:15 0.5
6 *18:15 *18:14 2.161786
7 *18:9 *18:8 1.580357
8 *18:10 *18:9 0.5
9 *18:10 *18:6 2.147322
10 *18:7 *96:A3 0.09166668
11 *18:8 *18:7 1
12 *18:5 *18:4 1.0375
13 *18:6 *18:5 0.5
14 *18:3 *113:A3 0.01
15 *18:4 *18:3 1

*END

*D_NET *19 0.7302033 //LENGTH 8.405 LUMPCC 0 DR

*CONN
*P *19 I *L 0 *C 10.212 0.258
*I *90:A2 I *L 0.447346 *C 4.459 2.566
*N *19:2 *C 4.284 2.460
*N *19:3 *C 4.284 2.446
*N *19:4 *C 4.284 2.018
*N *19:5 *C 4.298 2.004
*N *19:6 *C 10.199 2.004
*N *19:7 *C 10.212 1.991

*CAP
0 *19 0.08337998
1 *90:A2 0.001
2 *19:2 0.004026177
3 *19:3 0.02600548
4 *19:4 0.02582057
5 *19:5 0.254185
6 *19:6 0.2541851
7 *19:7 0.08160105

*RES
0 *19 *19:7 3.09375
1 *19:2 *90:A2 0.01
2 *19:3 *19:2 1
3 *19:4 *19:3 0.7660714
4 *19:5 *19:4 0.5
5 *19:6 *19:5 10.5375
6 *19:7 *19:6 0.5

*END

*D_NET *20 0.2664678 //LENGTH 3.237 LUMPCC 0 DR

*CONN
*P *20 I *L 0 *C 11.124 0.258
*I *88:A3 I *L 0.452455 *C 10.494 4.022
*N *20:2 *C 10.668 2.764
*N *20:3 *C 10.668 2.751
*N *20:4 *C 10.668 1.714
*N *20:5 *C 10.681 1.700
*N *20:6 *C 11.111 1.700
*N *20:7 *C 11.124 1.687

*CAP
0 *20 0.06866559
1 *88:A3 0.001
2 *20:2 0.004161305
3 *20:3 0.04208656
4 *20:4 0.04190165
5 *20:5 0.02088296
6 *20:6 0.02088306
7 *20:7 0.06688665

*RES
0 *20 *20:7 2.550893
1 *20:2 *88:A3 0.01
2 *20:3 *20:2 1
3 *20:4 *20:3 1.851786
4 *20:5 *20:4 0.5
5 *20:6 *20:5 0.7660714
6 *20:7 *20:6 0.5

*END

*D_NET *21 0.2665034 //LENGTH 3.065 LUMPCC 0 DR

*CONN
*P *21 I *L 0 *C 10.516 0.258
*I *88:A1 I *L 0.431429 *C 10.089 4.102
*N *21:2 *C 10.212 2.430
*N *21:3 *C 10.212 2.612
*N *21:4 *C 10.212 2.599
*N *21:5 *C 10.226 2.612
*N *21:6 *C 10.503 2.612
*N *21:7 *C 10.516 2.599

*CAP
0 *21 0.1027583
1 *88:A1 0.001
2 *21:2 0.01558584
3 *21:3 0.003682574
4 *21:4 0.01221268
5 *21:5 0.0151423
6 *21:6 0.0151424
7 *21:7 0.1009793

*RES
0 *21 *21:7 4.179464
1 *21:3 *88:A1 0.01
2 *21:4 *21:3 1
3 *21:4 *21:2 0.2825
4 *21:5 *21:4 0.5
5 *21:6 *21:5 0.4946429
6 *21:7 *21:6 0.5

*END

*D_NET *22 0.3002336 //LENGTH 3.352 LUMPCC 0 DR

*CONN
*P *22 I *L 0 *C 9.908 0.258
*I *91:A2 I *L 0.447346 *C 9.505 2.460
*N *22:2 *C 9.452 2.460
*N *22:3 *C 9.452 2.460
*N *22:4 *C 9.452 2.599
*N *22:5 *C 9.466 2.612
*N *22:6 *C 9.895 2.612
*N *22:7 *C 9.908 2.599

*CAP
0 *22 0.1065298
1 *91:A2 0.007827001
2 *22:2 0.006232874
3 *22:3 0.01565249
4 *22:4 0.01546759
5 *22:5 0.02188645
6 *22:6 0.02188656
7 *22:7 0.1047508

*RES
0 *22 *22:7 4.179464
1 *22:2 *91:A2 0.09166668
2 *22:3 *22:2 1
3 *22:4 *22:3 0.2325
4 *22:5 *22:4 0.5
5 *22:6 *22:5 0.7660715
6 *22:7 *22:6 0.5

*END

*D_NET *23 0.2809819 //LENGTH 2.590 LUMPCC 0 DR

*CONN
*P *23 I *L 0 *C 9.300 0.180
*I *91:A3 I *L 0.457554 *C 9.348 2.308
*N *23:2 *C 9.118 0.180
*N *23:3 *C 9.300 2.308
*N *23:4 *C 9.300 2.295
*N *23:5 *C 9.300 0.194
*N *23:6 *C 9.287 0.180

*CAP
0 *23 0.001
1 *91:A3 0.007676684
2 *23:2 0.01132977
3 *23:3 0.006082557
4 *23:4 0.123645
5 *23:5 0.1234601
6 *23:6 0.007787852

*RES
0 *23 *23:6 0.5
1 *23:3 *91:A3 0.09166668
2 *23:4 *23:3 1
3 *23:5 *23:4 3.751786
4 *23:6 *23:5 0.5
5 *23:6 *23:2 0.2825

*END

*D_NET *24 0.4015017 //LENGTH 4.641 LUMPCC 0 DR

*CONN
*P *24 I *L 0 *C 8.692 0.272
*I *88:A2 I *L 0.445252 *C 10.235 3.946
*N *24:2 *C 10.364 2.916
*N *24:3 *C 10.075 2.916
*N *24:4 *C 10.060 2.903
*N *24:5 *C 10.060 1.409
*N *24:6 *C 10.046 1.396
*N *24:7 *C 8.706 1.396
*N *24:8 *C 8.692 1.383

*CAP
0 *24 0.05338903
1 *88:A2 0.001
2 *24:2 0.01767694
3 *24:3 0.01608282
4 *24:4 0.06603676
5 *24:5 0.06585184
6 *24:6 0.06492706
7 *24:7 0.06492716
8 *24:8 0.0516101

*RES
0 *24 *24:8 1.983036
1 *24:3 *24:2 0.578
2 *24:4 *24:3 1
3 *24:5 *24:4 2.666071
4 *24:6 *24:5 0.5
5 *24:7 *24:6 2.394643
6 *24:8 *24:7 0.5
7 *24:2 *88:A2 0.01

*END

*D_NET *25 0.3874931 //LENGTH 4.411 LUMPCC 0 DR

*CONN
*P *25 I *L 0 *C 8.084 0.258
*I *91:A1 I *L 0.416334 *C 9.657 2.764
*N *25:2 *C 9.604 2.764
*N *25:3 *C 9.604 2.751
*N *25:4 *C 9.604 1.714
*N *25:5 *C 9.591 1.700
*N *25:6 *C 8.098 1.700
*N *25:7 *C 8.084 1.687

*CAP
0 *25 0.06399797
1 *91:A1 0.008429168
2 *25:2 0.006835041